#------------------------------------------------
#     _______          __  _______ __  __
#    / ____\ \        / /\|__   __|  \/  |
#   | |     \ \  /\  / /  \  | |  | \  / |
#   | |      \ \/  \/ / /\ \ | |  | |\/| |
#   | |____   \  /\  / ____ \| |  | |  | |
#    \_____|   \/  \/_/    \_\_|  |_|  |_|
#------------------------------------------------
# Community Water Model Version 0.99
# SETTINGS FILE
#------------------------------------------------
# AJF comment -- create a common template with MS so we can share and read in the same way
# AJF comment -- template cannot have repeated keyword/flag
# for Python 3.7sw
#-----------------------------------------------wasas
[OPTIONS]
#----------------------------------------------- Temperature and Grid
TemperatureInKelvin  =  True
gridSizeUserDefined  =  True
#----------------------------------------------- Evaporation
calc_evaporation  = 0
PET_modus  = True
#----------------------------------------------- Irrigation and Water Demand
includeIrrigation  =  True
includeWaterDemand  =  True
#----------------------------------------------- Water Allocation
limitAbstraction  =  True
#----------------------------------------------- Environmental Flow
calc_environflow  =  False
#----------------------------------------------- Soil
preferentialFlow  =  True
CapillarRise  =  True
#----------------------------------------------- Groundwater MODFLOW
modflow_coupling = 1
#----------------------------------------------- Routing
includeRunoffConcentration  =  False
includeRouting  =  True
#----------------------------------------------- Water Bodies
includeWaterBodies  =  True
onlyReservoirs  =  True
#----------------------------------------------- Inflow outside modelled area
inflow  =  False
waterquality  =  False
#----------------------------------------------- Reporting & Debugging
# Reporting options
writeNetcdfStack  =  True
reportMap  =  True
reportTss  =  True
#----------------------------------------------- Checking water balance (for debugging)
calcWaterBalance  =  False
sumWaterBalance  =  False
#------------------------------------------------ FUSE developments
demand2pumping  =  True
canal_leakage  =  True
rootFrac  =  True
using_reservoir_command_areas =  True
usingAdminSegments =  True
#------------------------------------------------
[FILE_PATHS]
#------------------------------------------------
PathRoot  =  C:/GitHub/FUSE
PathOut  =  C:/CWatM_output
PathMaps  =  $(FILE_PATHS:PathRoot)/Input
PathMeteo  =  $(FILE_PATHS:PathMaps)/meteo/IMD_wfdei
Excel_settings_file =  $(FILE_PATHS:PathRoot)/CWatM_settings/cwatm_settings.xlsx
#------------------------------------------------

#------------------------------------------------
[NETCDF_ATTRIBUTES]aD
#------------------------------------------------
institution  =  IIASA
title  =  Global Water Model - WATCH WDFEI - Upper Bhima 1km
metaNetcdfFile  =  $(FILE_PATHS:PathMaps)/metaNetcdf.xml
#------------------------------------------------
[MASK_OUTLET]
#------------------------------------------------
MaskMap  =  $(FILE_PATHS:PathMaps)/areamaps/Sarati_UB.map
#------------------------------------------------ Soil Station coordinates or map file
Gauges  =  75.0075 17.911389 75.12 17.97
GaugesLocal  =  True
#------------------------------------------------
[TIME-RELATED_CONSTANTS]
#------------------------------------------------ Start and End Time
StepStart  =  28/04/1993
SpinUp  =  28/04/1996
StepEnd  =  01/05/2007
#------------------------------------------------
[INITITIAL CONDITIONS]
#------------------------------------------------
load_initial  =  True
initLoad  =  $(FILE_PATHS:PathMaps)/init/Nira_20070427.nc
save_initial  = 0
initSave  =  $(FILE_PATHS:PathMaps)/init/Nira
StepInit  =  28/04/2006
#------------------------------------------------
[CALIBRATION] 
#------------------------------------------------Permeability
permeability  = 9.07407508834252e-06
#------------------------------------------------Porosity
poro  = 0.01572640947132589
#----------------------------------------------- Crop Factor Correction
crop_correct  = 1.4969259185504922
#----------------------------------------------- Soil
soildepth_factor  = 1.2357589498352997
preferentialFlowConstant  = 7.771620196341074
arnoBeta_add  = 0.4378794431106299
#----------------------------------------------- Interflow
factor_interflow  = 1.7415262118498727
#----------------------------------------------- River perentage coefficient
gwRiverMult = 0.8901685766037923
#----------------------------------------------- Routing Manning's Roughness
manningsN  = 7.159801087098635
#----------------------------------------------- Lake Parameter Channel width and weir coefficient
lakeAFactor  = 1.2001137835309703
lakeEvaFactor  = 1.5932766384205812

#----------------------------------------------- Previous calibration parameters
#----------------------------------------------- GW recession coefficient factor
recessionCoeff_factor  = 5.08489365888276
#----------------------------------------------- Snow
SnowMeltCoef  = 0.004
#----------------------------------------------- Reservoir Storage limit fraction of total storage
normalStorageLimit  = 0.645563228322237
#----------------------------------------------- Runoff concentration factor
runoffConc_factor  = 2.36693786921974

#------------------------------------------------ Topography
[TOPOP]
#------------------------------------------------
#------------------------------------------------ Local drain direction map (1-9)
Ldd  =  $(FILE_PATHS:PathMaps)/routing/ldd.tif
#----------------------------------------------- Elevation map for downscaling meteo maps
Elevation = $(FILE_PATHS:PathMaps)/landsurface/topo/dem_India_1km_extract.map
ElevationStD = $(FILE_PATHS:PathMaps)/landsurface/topo/elvstd_UB_1km.map
#----------------------------------------------- Area of pixel [m2] (for lat/lon every cell has a different area)
CellArea  =  $(FILE_PATHS:PathMaps)/landsurface/topo/cellArea_m2_30s.tif
Lat  =  $(FILE_PATHS:PathMaps)/landsurface/topo/cellarea_lat.tif
Lon  =  $(FILE_PATHS:PathMaps)/landsurface/topo/cellarea_lon.tif
#------------------------------------------------ Meteorology
[METEO]
#------------------------------------------------
meteomapssamescale  =  False
downscale_wordclim_tavg  =  $(FILE_PATHS:PathMeteo)/worldclim/worldclim_tavg_UB.nc
downscale_wordclim_tmin  =  $(FILE_PATHS:PathMeteo)/worldclim/worldclim_tmin_UB.nc
downscale_wordclim_tmax  =  $(FILE_PATHS:PathMeteo)/worldclim/worldclim_tmax_UB.nc
downscale_wordclim_prec  =  $(FILE_PATHS:PathMeteo)/worldclim/worldclim_prec_UB.nc
usemeteodownscaling  =  True
PrecipitationMaps  =  $(FILE_PATHS:PathMeteo)/pr*
TavgMaps  =  $(FILE_PATHS:PathMeteo)/tas*
E0Maps  = $(FILE_PATHS:PathMeteo)/EWRef_daily_Nira.nc
ETMaps  = $(FILE_PATHS:PathMeteo)/ETRef_daily_Nira.nc
#------------------------------------------------ Conversion factors (AJF comment typo)
precipitation_coversion  = 86.4
evaporation_coversion  = 1.0
#------------------------------------------------
[EVAPORATION]
#------------------------------------------------
albedo  =  True
albedoMaps  =  $(FILE_PATHS:PathMaps)/landsurface/albedo/albedo_UB_1km.nc
AlbedoSoil  = 0.15
AlbedoWater  = 0.05
AlbedoCanopy  = 0.23
useHuss  =  True
TminMaps  =  $(FILE_PATHS:PathMeteo)/tasmin*
TmaxMaps  =  $(FILE_PATHS:PathMeteo)/tasmax*
PSurfMaps  =  $(FILE_PATHS:PathMeteo)/ps*
QAirMaps  =  $(FILE_PATHS:PathMeteo)/huss*
WindMaps  =  $(FILE_PATHS:PathMeteo)/wind*
RSDSMaps  =  $(FILE_PATHS:PathMeteo)/rsds*
RSDLMaps  =  $(FILE_PATHS:PathMeteo)/rlds*
#------------------------------------------------
[SNOW]
#------------------------------------------------
NumberSnowLayers  = 1.0
GlacierTransportZone  = 1.0
TemperatureLapseRate  = 0.0065
SnowFactor  = 1.0
SnowSeasonAdj  = 0.001
TempMelt  = 1.0
TempSnow  = 1.0
IceMeltCoef   = 0.007
#------------------------------------------------
[FROST]
#------------------------------------------------
SnowWaterEquivalent  = 0.45
Afrost  = 0.97
Kfrost  = 0.57
FrostIndexThreshold  = 56.0
#------------------------------------------------
[VEGETATION]
#------------------------------------------------
cropgroupnumber  =  $(FILE_PATHS:PathMaps)/soil/cropgrp_UB_1km.nc
#------------------------------------------------
[SOIL]
#------------------------------------------------
PathTopo  =  $(FILE_PATHS:PathMaps)/landsurface/topo
PathSoil1  =   $(FILE_PATHS:PathMaps)/soil
tanslope  =  $(PathTopo)/tanslope_UB_1km.map
slopeLength  =  $(PathTopo)/slopeLength_UB_1km.map
relativeElevation  =  $(PathTopo)/dzRel_UB_1km.nc
KSat1  =  $(PathSoil1)/ksat1_UB_1km.map
KSat2  =  $(PathSoil1)/ksat2_UB_1km.map
KSat3  =  $(PathSoil1)/ksat3_UB_1km.map
alpha1  =  $(PathSoil1)/alpha1_UB_1km.map
alpha2  =  $(PathSoil1)/alpha2_UB_1km.map
alpha3  =  $(PathSoil1)/alpha3_UB_1km.map
lambda1  =  $(PathSoil1)/lambda1_UB_1km.map
lambda2  =  $(PathSoil1)/lambda2_UB_1km.map
lambda3  =  $(PathSoil1)/lambda3_UB_1km.map
thetas1  =  $(PathSoil1)/thetas1_UB_1km.map
thetas2  =  $(PathSoil1)/thetas2_UB_1km.map
thetas3  =  $(PathSoil1)/thetas3_UB_1km.map
thetar1  =  $(PathSoil1)/thetar1_UB_1km.map
thetar2  =  $(PathSoil1)/thetar2_UB_1km.map
thetar3  =  $(PathSoil1)/thetar3_UB_1km.map
percolationImp  =  $(PathSoil1)/percolationImp_UB_1km.map
maxGWCapRise     = 5.0
minCropKC         = 0.2
minTopWaterLayer  = 0.0
StorDepth1  =  $(PathSoil1)/storageDepth1_UB_1km.map
StorDepth2  =  $(PathSoil1)/storageDepth2_UB_1km.map
#------------------------------------------------
[LANDCOVER]
#------------------------------------------------
PathLandcover  =  $(FILE_PATHS:PathMaps)/landsurface
coverTypes  =  forest, grassland, irrPaddy, irrNonPaddy, sealed, water
coverTypesShort  =  f, g, i, n, s, w
fractionLandcover  =  $(PathLandcover)/fractionLandCover_UB_1km.nc
Urban_1km  =  $(PathLandcover)/Urban_fraction.tif
fracCrop_sugar  =  $(PathLandcover)/sugar_max_frac.tif
fracCrop_rice  =  $(PathLandcover)/Rice_30sec.tif
Crop_1km  =  $(PathLandcover)/Crop_1km.tif
Irr_1km  =  $(PathLandcover)/Irrigated_fraction.tif
Forest_1km  =  $(PathLandcover)/Forest_Shrub_1km.tif
Water_1km  =  $(PathLandcover)/Water_1km.tif
dynamicLandcover  =  True
fixLandcoverYear  = 1961.0
Ratoon = C:/GitHub/FUSE/Input/landcover/crops/sugar_max_frac.tif
Sugar1 = C:/GitHub/FUSE/Input/landcover/crops/sugar_max_frac.tif
Sugar2 = C:/GitHub/FUSE/Input/landcover/crops/sugar_max_frac.tif
Sugar3 = C:/GitHub/FUSE/Input/landcover/crops/sugar_max_frac.tif
Sorghum = C:/GitHub/FUSE/Input/landcover/crops/Sorghum_1km.tif
Groundnut = C:/GitHub/FUSE/Input/landcover/crops/Groundnut_30sec.tif
Wheat = C:/GitHub/FUSE/Input/landcover/crops/Wheat_30sec.tif
Maize = C:/GitHub/FUSE/Input/landcover/crops/Maize_30sec.tif


#------------------------------------------------
[__forest]
#------------------------------------------------
PathForest  =  $(FILE_PATHS:PathMaps)/landcover/forest
PathSoil1 =  $(FILE_PATHS:PathMaps)/soil
forest_arnoBeta  = 0.2
forest_KSat1  =  $(PathSoil1)/forest_ksat1_UB_1km.map
forest_KSat2  =  $(PathSoil1)/forest_ksat2_UB_1km.map
forest_KSat3  =  $(PathSoil1)/ksat3_UB_1km.map
forest_alpha1  =  $(PathSoil1)/forest_alpha1_UB_1km.map
forest_alpha2  =  $(PathSoil1)/forest_alpha2_UB_1km.map
forest_alpha3  =  $(PathSoil1)/alpha3_UB_1km.map
forest_lambda1  =  $(PathSoil1)/forest_lambda1_UB_1km.map
forest_lambda2  =  $(PathSoil1)/forest_lambda2_UB_1km.map
forest_lambda3  =  $(PathSoil1)/lambda3_UB_1km.map
forest_thetas1  =  $(PathSoil1)/forest_thetas1_UB_1km.map
forest_thetas2  =  $(PathSoil1)/forest_thetas2_UB_1km.map
forest_thetas3  =  $(PathSoil1)/thetas3_UB_1km.map
forest_thetar1  =  $(PathSoil1)/forest_thetar1_UB_1km.map
forest_thetar2  =  $(PathSoil1)/forest_thetar2_UB_1km.map
forest_thetar3  =  $(PathSoil1)/thetar3_UB_1km.map
forest_minInterceptCap   = 0.001
forest_cropDeplFactor    = 0.0
forest_rootFraction1  =  $(PathForest)/rootFraction1_UB_1km.map
forest_maxRootDepth   =  $(PathForest)/maxRootDepth_UB_1km.map
forest_minSoilDepthFrac  =  $(PathForest)/minSoilDepthFrac_UB_1km.map
forest_cropCoefficientNC  =  $(PathForest)/cropCoefficientForest_10days_UB_1km.nc
forest_interceptCapNC     =  $(PathForest)/interceptCapForest_10days_UB_1km.nc
#------------------------------------------------
[__grassland]
#------------------------------------------------
PathGrassland  =  $(FILE_PATHS:PathMaps)/landcover/grassland
grassland_arnoBeta  = 0.0
grassland_minInterceptCap   = 0.001
grassland_cropDeplFactor    = 0.0
grassland_rootFraction1  =  $(PathGrassland)/rootFraction1_UB_1km.map
grassland_maxRootDepth   =  $(PathGrassland)/maxRootDepth_UB_1km.map
grassland_minSoilDepthFrac  =  $(PathGrassland)/minSoilDepthFrac.map
grassland_cropCoefficientNC  =  $(PathGrassland)/cropCoefficientGrassland_10days_UB_1km.nc
grassland_interceptCapNC     =  $(PathGrassland)/interceptCapGrassland_10days_UB_1km.nc
#------------------------------------------------
[__irrPaddy]
#------------------------------------------------
PathIrrPaddy  =  $(FILE_PATHS:PathMaps)/landcover/irrPaddy
irrPaddy_arnoBeta  = 0.2
irrPaddy_minInterceptCap   = 0.001
irrPaddy_cropDeplFactor    = 0.0
irrPaddy_rootFraction1  =  $(PathIrrPaddy)/rootFraction1_UB_1km.map
irrPaddy_maxRootDepth   =  $(PathIrrPaddy)/maxRootDepth_UB_1km.map
irrPaddy_minSoilDepthFrac  =  $(PathIrrPaddy)/minSoilDepthFrac.map
irrPaddy_cropCoefficientNC  =  $(PathIrrPaddy)/cropCoefficientirrPaddy_10days_UB_1km.nc
irrPaddy_maxtopwater  = 0.05
#------------------------------------------------
[__irrNonPaddy]
#------------------------------------------------
PathIrrNonPaddy  =  $(FILE_PATHS:PathMaps)/landcover/irrNonPaddy
irrNonPaddy_arnoBeta  = 0.2
irrNonPaddy_minInterceptCap   = 0.001
irrNonPaddy_cropDeplFactor    = 0.0
irrNonPaddy_rootFraction1  =  $(PathIrrNonPaddy)/rootFraction1_UB_1km.map
irrNonPaddy_maxRootDepth   =  $(PathIrrNonPaddy)/maxRootDepth_UB_1km.map
irrNonPaddy_minSoilDepthFrac  =  $(PathIrrNonPaddy)/minSoilDepthFrac.map
irrNonPaddy_cropCoefficientNC  =  $(PathIrrNonPaddy)/cropCoefficientirrNonPaddy_10days_UB_1km.nc
#------------------------------------------------
[__sealed]
#------------------------------------------------
sealed_minInterceptCap   = 0.001
#-------------------------------------------------------
[__open_water]
#-------------------------------------------------------
PathWater  =  $(FILE_PATHS:PathMaps)/landcover/water
water_minInterceptCap   = 0.0
#-------------------------------------------------------
[GROUNDWATER]
#-------------------------------------------------------
PathGroundwater  =  $(FILE_PATHS:PathMaps)/groundwater
recessionCoeff  =  $(PathGroundwater)/recessionCoeff_UB_1km.map
specificYield  =  $(PathGroundwater)/specificYield_UB_1km.map
kSatAquifer  =  $(PathGroundwater)/kSatAquifer_UB_1km.map
#-------------------------------------------------------
[GROUNDWATER_MODFLOW]
#-------------------------------------------------------
PathGroundwaterModflow  =  $(FILE_PATHS:PathRoot)/Modflow
modflow_exe  =  $(PathGroundwaterModflow)/MODFLOW-NWT_64
PathGroundwaterModflowOutput  =  $(PathGroundwaterModflow)/output
PathGroundwaterModflowClimate  =  $(FILE_PATHS:PathMeteo)/groundwater_avg
PathGroundwaterModflowInput  =  $(PathGroundwaterModflow)/modflow_inputs/2_ModFlow_inputs500m_Bhima
writeModflowError  =  True
modflow_steadystate  = 0
load_steady_previous  = 0
Ndays_steady  = 500.0
ModflowPrecipitationMaps  =  $(PathGroundwaterModflowClimate)/pr_avg.nc
ModflowTavgMaps  =  $(PathGroundwaterModflowClimate)/tas_avg.nc
ModflowE0Maps  =  $(PathGroundwaterModflowClimate)/ew_avg.nc
ModflowETMaps  =  $(PathGroundwaterModflowClimate)/et_avg.nc
Groundwater_pumping  =  True
Pumping_input_file  =  $(PathGroundwaterModflow)/modflow_inputs/pumping_input_file_unique_Sarati_1591.npy
modflow_steadyInit  =  $(PathGroundwaterModflowOutput)/Nira_steady_April9_3.hds
nameModflowModel  =  Bhima
res_ModFlow  = 500.0
modflow_timestep  = 10.0
nlay  = 1.0
catchment_limits  =   $(PathGroundwaterModflowInput)/UB_limits.txt
topo_modflow  =  $(PathGroundwaterModflowInput)/Topo.txt
riverPercentage  =  $(PathGroundwaterModflowInput)/RiverPercentage.npy
thickness  = 100.0

index_cwatm  =   $(PathGroundwaterModflowInput)/CWATMindex.txt
weight_cwatm  =   $(PathGroundwaterModflowInput)/Weight.txt
weight_modflow  =   $(PathGroundwaterModflowInput)/Weight2.txt
#-------------------------------------------------------
[WATERDEMAND]
#-------------------------------------------------------
PathWaterdemand  =  $(FILE_PATHS:PathMaps)/landsurface/waterDemand
reservoir_command_areas =  $(PathWaterdemand)/Sarati_CommandAreas_1.tif
demand_unit  =  True
domesticWaterDemandFile  =  $(PathWaterdemand)/domesticWaterDemand_UB_1km.nc
domesticTimeMonthly  =  True
domesticWithdrawalvarname  =  domesticWithdrawal
domesticConsuptionvarname  =  domesticConsumption
industryWaterDemandFile  =  $(PathWaterdemand)/industryWaterDemand_UB_1km.nc
industryTimeMonthly  =  True
industryWithdrawalvarname  =  industryWithdrawal
industryConsuptionvarname  =  industryConsumption
uselivestock  =  True
livestockWaterDemandFile  =  $(PathWaterdemand)/livestockWaterDemand_UB_1km.nc
livestockTimeMonthly  =  True
livestockvarname  =  livestockConsumption
use_environflow  =  False
EnvironmentalFlowFile  =  $(FILE_PATHS:PathOut)/MQ90_12month.nc
irrNonPaddy_efficiency  = 0.7
irrPaddy_efficiency  = 0.6
irrigation_returnfraction  = 0.5
swAbstractionFrac = $(PathWaterdemand)/swAbstractionFraction_output.nc
#-------------------------------------------------------
averageDischarge  =  $(FILE_PATHS:PathOut)/discharge_totalavg1.nc
averageBaseflow   =  $(FILE_PATHS:PathOut)/baseflow_totalavg1.nc
baseflowInM  =  True
#-------------------------------------------------------
[RUNOFF_CONCENTRATION]
#-------------------------------------------------------
forest_runoff_peaktime  = 1.0
grassland_runoff_peaktime  = 0.5
irrPaddy_runoff_peaktime  = 0.5
irrNonPaddy_runoff_peaktime  = 0.5
sealed_runoff_peaktime  = 0.15
water_runoff_peaktime  = 0.01
interflow_runoff_peaktime  = 1.0
baseflow_runoff_peaktime  = 2.0
#-------------------------------------------------------
[ROUTING]
#-------------------------------------------------------
PathRouting  =  $(FILE_PATHS:PathMaps)/routing
NoRoutingSteps  = 200.0
chanBeta  = 0.6
chanGrad  =  $(PathRouting)/kinematic/changrad_UB.map
chanGradMin  = 0.0001
chanMan  =  $(PathRouting)/kinematic/chanmann_UB.map
chanLength  =  $(PathRouting)/kinematic/chanleng_UB.map
chanWidth  =  $(PathRouting)/kinematic/chanwidth_UB.map
chanDepth  =  $(PathRouting)/kinematic/chanheight_UB.map
#-------------------------------------------------------
[LAKES_RESERVOIRS]
#-------------------------------------------------------
PathLakesRes  =  $(FILE_PATHS:PathMaps)/routing/lakesreservoirs
useResAndLakes  =  True
dynamicLakesRes  =  True
fixLakesResYear  = 1961.0
waterBodyID  =  $(PathLakesRes)/lakesResID_Sarati.tif
waterBodyTyp  =  $(PathLakesRes)/lakesResType_Sarati.tif
waterBodyDis  =  $(PathLakesRes)/lakesResDis_Sarati.tif
waterBodyArea  =  $(PathLakesRes)/lakesResArea_Sarati.tif
useSmallLakes  =  False
smallLakesRes  =  $(PathLakesRes)/smallLakesRes_UB_1km.nc
smallwaterBodyDis  =  $(PathLakesRes)/smallLakesResDis_UB_1km.nc
waterBodyVolRes  =  $(PathLakesRes)/LiveVolume.tif
waterBodyYear  =  $(PathLakesRes)/Reservoir_year_construction.tif
conservativeStorageLimit  = 0.02
floodStorageLimit  = 0.9
adjust_Normal_Flood  = 0.5
MinOutflowQ  = 0.0
NormalOutflowQ  = 1.0
NonDamagingOutflowQ  = 4.0
Reservoir_releases_input_file  =  $(FILE_PATHS:PathMaps)/routing/lakesreservoirs/Reservoir_releases.nc
floodStorageLimit_JuneAndEarlier  = 0.9297
floodStorageLimit_July  = 0.9497
floodStorageLimit_AugustAndLater  = 0.985
Water_conveyance_efficiency = 0.7
#-------------------------------------------------------
[INFLOW]
#-------------------------------------------------------
In_Dir  =  $(FILE_PATHS:PathRoot)/in
InflowPoints  =  $(In_Dir)/in.map
QInTS  =  mm.tss
#-------------------------------------------------------
[ENVIRONMENTALFLOW]
#-------------------------------------------------------
calc_ef_after  =  True
EFDis  =  $(FILE_PATHS:PathOut)/discharge_rhine.nc
cut_ef_map  =  False
#-------------------------------------------------------
[OUTPUT]
#-------------------------------------------------------
OUT_Dir  =  $(FILE_PATHS:PathOut)

OUT_MAP_Daily = discharge, lakeResInflowDis, lakeResOutflowDis, lakeResStorage, act_bigLakeResAbst_alloc, gwstorage_cell, readAvlStorGroundwater, head_development 
OUT_MAP_MonthEnd  = modflowWaterLevel
OUT_MAP_MonthTot  = 
OUT_MAP_AnnualEnd  = 
OUT_MAP_AnnualTot  = 
OUT_MAP_TotalEnd  =  modflowtotalSoilThickness, swAbstractionFraction

#+++++++++++++++++++++++++++++++++++++++++++++++++++++++
# END OF SETTINGS FILE
#+++++++++++++++++++++++++++++++++++++++++++++++++++++++
