# Name file for MODFLOW-NWT, generated by Flopy version 3.2.6.
#xul:0; yul:636000; rotation:0; proj4_str:+init=EPSG:4326; units:meters; lenuni:2; length_multiplier:1.0 ;start_datetime:1-1-1970
LIST               2  E:\\Modflow\\Last_CWatM_ModFlow_Bhima/output/Bhima_steady.list
DIS               11  E:\\Modflow\\Last_CWatM_ModFlow_Bhima/output/Bhima_steady.dis 
BAS6              13  E:\\Modflow\\Last_CWatM_ModFlow_Bhima/output/Bhima_steady.bas 
UPW               31  E:\\Modflow\\Last_CWatM_ModFlow_Bhima/output/Bhima_steady.upw 
NWT               32  E:\\Modflow\\Last_CWatM_ModFlow_Bhima/output/Bhima_steady.nwt 
DRN               21  E:\\Modflow\\Last_CWatM_ModFlow_Bhima/output/Bhima_steady.drn 
RCH               19  E:\\Modflow\\Last_CWatM_ModFlow_Bhima/output/Bhima_steady.rch 
OC                14  E:\\Modflow\\Last_CWatM_ModFlow_Bhima/output/Bhima_steady.oc 
DATA(BINARY)      51  E:\\Modflow\\Last_CWatM_ModFlow_Bhima/output/Bhima_steady.hds REPLACE
