# File generated by Flopy version 3.3.4 on 07/08/2022 at 14:53:10.
BEGIN options
  HEAD  FILEOUT  TRANSIENT.hds
END options

BEGIN period  1
  SAVE  HEAD  FREQUENCY  10
END period  1

