# File generated by Flopy version 3.3.4 on 07/08/2022 at 14:52:57.
BEGIN options
  COMPLEXITY  simple
END options

BEGIN linear
  inner_rclose  1.62095904E+09  L2NORM_RCLOSE
  LINEAR_ACCELERATION  bicgstab
END linear

