# File generated by Flopy version 3.3.3 on 01/15/2022 at 11:18:48.
BEGIN options
  COMPLEXITY  simple
END options

BEGIN linear
  inner_rclose  1.62095904E+09  L2NORM_RCLOSE
  LINEAR_ACCELERATION  bicgstab
END linear

