# File generated by Flopy version 3.3.3 on 01/15/2022 at 11:18:56.
BEGIN options
  HEAD  FILEOUT  TRANSIENT.hds
END options

BEGIN period  1
  SAVE  HEAD  FREQUENCY  10
END period  1

