# File generated by Flopy version 3.3.4 on 07/08/2022 at 17:07:09.
BEGIN options
END options

BEGIN dimensions
  NPER  11689
END dimensions

BEGIN perioddata
       1.00000000  1       1.00000000
       1.00000000  1       1.00000000
       1.00000000  1       1.00000000
       1.00000000  1       1.00000000
       1.00000000  1       1.00000000
       1.00000000  1       1.00000000
       1.00000000  1       1.00000000
       1.00000000  1       1.00000000
       1.00000000  1       1.00000000
       1.00000000  1       1.00000000
       1.00000000  1       1.00000000
       1.00000000  1       1.00000000
       1.00000000  1       1.00000000
       1.00000000  1       1.00000000
       1.00000000  1       1.00000000
       1.00000000  1       1.00000000
       1.00000000  1       1.00000000
       1.00000000  1       1.00000000
       1.00000000  1       1.00000000
       1.00000000  1       1.00000000
       1.00000000  1       1.00000000
       1.00000000  1       1.00000000
       1.00000000  1       1.00000000
       1.00000000  1       1.00000000
       1.00000000  1       1.00000000
       1.00000000  1       1.00000000
       1.00000000  1       1.00000000
       1.00000000  1       1.00000000
       1.00000000  1       1.00000000
       1.00000000  1       1.00000000
       1.00000000  1       1.00000000
       1.00000000  1       1.00000000
       1.00000000  1       1.00000000
       1.00000000  1       1.00000000
       1.00000000  1       1.00000000
       1.00000000  1       1.00000000
       1.00000000  1       1.00000000
       1.00000000  1       1.00000000
       1.00000000  1       1.00000000
       1.00000000  1       1.00000000
       1.00000000  1       1.00000000
       1.00000000  1       1.00000000
       1.00000000  1       1.00000000
       1.00000000  1       1.00000000
       1.00000000  1       1.00000000
       1.00000000  1       1.00000000
       1.00000000  1       1.00000000
       1.00000000  1       1.00000000
       1.00000000  1       1.00000000
       1.00000000  1       1.00000000
       1.00000000  1       1.00000000
       1.00000000  1       1.00000000
       1.00000000  1       1.00000000
       1.00000000  1       1.00000000
       1.00000000  1       1.00000000
       1.00000000  1       1.00000000
       1.00000000  1       1.00000000
       1.00000000  1       1.00000000
       1.00000000  1       1.00000000
       1.00000000  1       1.00000000
       1.00000000  1       1.00000000
       1.00000000  1       1.00000000
       1.00000000  1       1.00000000
       1.00000000  1       1.00000000
       1.00000000  1       1.00000000
       1.00000000  1       1.00000000
       1.00000000  1       1.00000000
       1.00000000  1       1.00000000
       1.00000000  1       1.00000000
       1.00000000  1       1.00000000
       1.00000000  1       1.00000000
       1.00000000  1       1.00000000
       1.00000000  1       1.00000000
       1.00000000  1       1.00000000
       1.00000000  1       1.00000000
       1.00000000  1       1.00000000
       1.00000000  1       1.00000000
       1.00000000  1       1.00000000
       1.00000000  1       1.00000000
       1.00000000  1       1.00000000
       1.00000000  1       1.00000000
       1.00000000  1       1.00000000
       1.00000000  1       1.00000000
       1.00000000  1       1.00000000
       1.00000000  1       1.00000000
       1.00000000  1       1.00000000
       1.00000000  1       1.00000000
       1.00000000  1       1.00000000
       1.00000000  1       1.00000000
       1.00000000  1       1.00000000
       1.00000000  1       1.00000000
       1.00000000  1       1.00000000
       1.00000000  1       1.00000000
       1.00000000  1       1.00000000
       1.00000000  1       1.00000000
       1.00000000  1       1.00000000
       1.00000000  1       1.00000000
       1.00000000  1       1.00000000
       1.00000000  1       1.00000000
       1.00000000  1       1.00000000
       1.00000000  1       1.00000000
       1.00000000  1       1.00000000
       1.00000000  1       1.00000000
       1.00000000  1       1.00000000
       1.00000000  1       1.00000000
       1.00000000  1       1.00000000
       1.00000000  1       1.00000000
       1.00000000  1       1.00000000
       1.00000000  1       1.00000000
       1.00000000  1       1.00000000
       1.00000000  1       1.00000000
       1.00000000  1       1.00000000
       1.00000000  1       1.00000000
       1.00000000  1       1.00000000
       1.00000000  1       1.00000000
       1.00000000  1       1.00000000
       1.00000000  1       1.00000000
       1.00000000  1       1.00000000
       1.00000000  1       1.00000000
       1.00000000  1       1.00000000
       1.00000000  1       1.00000000
       1.00000000  1       1.00000000
       1.00000000  1       1.00000000
       1.00000000  1       1.00000000
       1.00000000  1       1.00000000
       1.00000000  1       1.00000000
       1.00000000  1       1.00000000
       1.00000000  1       1.00000000
       1.00000000  1       1.00000000
       1.00000000  1       1.00000000
       1.00000000  1       1.00000000
       1.00000000  1       1.00000000
       1.00000000  1       1.00000000
       1.00000000  1       1.00000000
       1.00000000  1       1.00000000
       1.00000000  1       1.00000000
       1.00000000  1       1.00000000
       1.00000000  1       1.00000000
       1.00000000  1       1.00000000
       1.00000000  1       1.00000000
       1.00000000  1       1.00000000
       1.00000000  1       1.00000000
       1.00000000  1       1.00000000
       1.00000000  1       1.00000000
       1.00000000  1       1.00000000
       1.00000000  1       1.00000000
       1.00000000  1       1.00000000
       1.00000000  1       1.00000000
       1.00000000  1       1.00000000
       1.00000000  1       1.00000000
       1.00000000  1       1.00000000
       1.00000000  1       1.00000000
       1.00000000  1       1.00000000
       1.00000000  1       1.00000000
       1.00000000  1       1.00000000
       1.00000000  1       1.00000000
       1.00000000  1       1.00000000
       1.00000000  1       1.00000000
       1.00000000  1       1.00000000
       1.00000000  1       1.00000000
       1.00000000  1       1.00000000
       1.00000000  1       1.00000000
       1.00000000  1       1.00000000
       1.00000000  1       1.00000000
       1.00000000  1       1.00000000
       1.00000000  1       1.00000000
       1.00000000  1       1.00000000
       1.00000000  1       1.00000000
       1.00000000  1       1.00000000
       1.00000000  1       1.00000000
       1.00000000  1       1.00000000
       1.00000000  1       1.00000000
       1.00000000  1       1.00000000
       1.00000000  1       1.00000000
       1.00000000  1       1.00000000
       1.00000000  1       1.00000000
       1.00000000  1       1.00000000
       1.00000000  1       1.00000000
       1.00000000  1       1.00000000
       1.00000000  1       1.00000000
       1.00000000  1       1.00000000
       1.00000000  1       1.00000000
       1.00000000  1       1.00000000
       1.00000000  1       1.00000000
       1.00000000  1       1.00000000
       1.00000000  1       1.00000000
       1.00000000  1       1.00000000
       1.00000000  1       1.00000000
       1.00000000  1       1.00000000
       1.00000000  1       1.00000000
       1.00000000  1       1.00000000
       1.00000000  1       1.00000000
       1.00000000  1       1.00000000
       1.00000000  1       1.00000000
       1.00000000  1       1.00000000
       1.00000000  1       1.00000000
       1.00000000  1       1.00000000
       1.00000000  1       1.00000000
       1.00000000  1       1.00000000
       1.00000000  1       1.00000000
       1.00000000  1       1.00000000
       1.00000000  1       1.00000000
       1.00000000  1       1.00000000
       1.00000000  1       1.00000000
       1.00000000  1       1.00000000
       1.00000000  1       1.00000000
       1.00000000  1       1.00000000
       1.00000000  1       1.00000000
       1.00000000  1       1.00000000
       1.00000000  1       1.00000000
       1.00000000  1       1.00000000
       1.00000000  1       1.00000000
       1.00000000  1       1.00000000
       1.00000000  1       1.00000000
       1.00000000  1       1.00000000
       1.00000000  1       1.00000000
       1.00000000  1       1.00000000
       1.00000000  1       1.00000000
       1.00000000  1       1.00000000
       1.00000000  1       1.00000000
       1.00000000  1       1.00000000
       1.00000000  1       1.00000000
       1.00000000  1       1.00000000
       1.00000000  1       1.00000000
       1.00000000  1       1.00000000
       1.00000000  1       1.00000000
       1.00000000  1       1.00000000
       1.00000000  1       1.00000000
       1.00000000  1       1.00000000
       1.00000000  1       1.00000000
       1.00000000  1       1.00000000
       1.00000000  1       1.00000000
       1.00000000  1       1.00000000
       1.00000000  1       1.00000000
       1.00000000  1       1.00000000
       1.00000000  1       1.00000000
       1.00000000  1       1.00000000
       1.00000000  1       1.00000000
       1.00000000  1       1.00000000
       1.00000000  1       1.00000000
       1.00000000  1       1.00000000
       1.00000000  1       1.00000000
       1.00000000  1       1.00000000
       1.00000000  1       1.00000000
       1.00000000  1       1.00000000
       1.00000000  1       1.00000000
       1.00000000  1       1.00000000
       1.00000000  1       1.00000000
       1.00000000  1       1.00000000
       1.00000000  1       1.00000000
       1.00000000  1       1.00000000
       1.00000000  1       1.00000000
       1.00000000  1       1.00000000
       1.00000000  1       1.00000000
       1.00000000  1       1.00000000
       1.00000000  1       1.00000000
       1.00000000  1       1.00000000
       1.00000000  1       1.00000000
       1.00000000  1       1.00000000
       1.00000000  1       1.00000000
       1.00000000  1       1.00000000
       1.00000000  1       1.00000000
       1.00000000  1       1.00000000
       1.00000000  1       1.00000000
       1.00000000  1       1.00000000
       1.00000000  1       1.00000000
       1.00000000  1       1.00000000
       1.00000000  1       1.00000000
       1.00000000  1       1.00000000
       1.00000000  1       1.00000000
       1.00000000  1       1.00000000
       1.00000000  1       1.00000000
       1.00000000  1       1.00000000
       1.00000000  1       1.00000000
       1.00000000  1       1.00000000
       1.00000000  1       1.00000000
       1.00000000  1       1.00000000
       1.00000000  1       1.00000000
       1.00000000  1       1.00000000
       1.00000000  1       1.00000000
       1.00000000  1       1.00000000
       1.00000000  1       1.00000000
       1.00000000  1       1.00000000
       1.00000000  1       1.00000000
       1.00000000  1       1.00000000
       1.00000000  1       1.00000000
       1.00000000  1       1.00000000
       1.00000000  1       1.00000000
       1.00000000  1       1.00000000
       1.00000000  1       1.00000000
       1.00000000  1       1.00000000
       1.00000000  1       1.00000000
       1.00000000  1       1.00000000
       1.00000000  1       1.00000000
       1.00000000  1       1.00000000
       1.00000000  1       1.00000000
       1.00000000  1       1.00000000
       1.00000000  1       1.00000000
       1.00000000  1       1.00000000
       1.00000000  1       1.00000000
       1.00000000  1       1.00000000
       1.00000000  1       1.00000000
       1.00000000  1       1.00000000
       1.00000000  1       1.00000000
       1.00000000  1       1.00000000
       1.00000000  1       1.00000000
       1.00000000  1       1.00000000
       1.00000000  1       1.00000000
       1.00000000  1       1.00000000
       1.00000000  1       1.00000000
       1.00000000  1       1.00000000
       1.00000000  1       1.00000000
       1.00000000  1       1.00000000
       1.00000000  1       1.00000000
       1.00000000  1       1.00000000
       1.00000000  1       1.00000000
       1.00000000  1       1.00000000
       1.00000000  1       1.00000000
       1.00000000  1       1.00000000
       1.00000000  1       1.00000000
       1.00000000  1       1.00000000
       1.00000000  1       1.00000000
       1.00000000  1       1.00000000
       1.00000000  1       1.00000000
       1.00000000  1       1.00000000
       1.00000000  1       1.00000000
       1.00000000  1       1.00000000
       1.00000000  1       1.00000000
       1.00000000  1       1.00000000
       1.00000000  1       1.00000000
       1.00000000  1       1.00000000
       1.00000000  1       1.00000000
       1.00000000  1       1.00000000
       1.00000000  1       1.00000000
       1.00000000  1       1.00000000
       1.00000000  1       1.00000000
       1.00000000  1       1.00000000
       1.00000000  1       1.00000000
       1.00000000  1       1.00000000
       1.00000000  1       1.00000000
       1.00000000  1       1.00000000
       1.00000000  1       1.00000000
       1.00000000  1       1.00000000
       1.00000000  1       1.00000000
       1.00000000  1       1.00000000
       1.00000000  1       1.00000000
       1.00000000  1       1.00000000
       1.00000000  1       1.00000000
       1.00000000  1       1.00000000
       1.00000000  1       1.00000000
       1.00000000  1       1.00000000
       1.00000000  1       1.00000000
       1.00000000  1       1.00000000
       1.00000000  1       1.00000000
       1.00000000  1       1.00000000
       1.00000000  1       1.00000000
       1.00000000  1       1.00000000
       1.00000000  1       1.00000000
       1.00000000  1       1.00000000
       1.00000000  1       1.00000000
       1.00000000  1       1.00000000
       1.00000000  1       1.00000000
       1.00000000  1       1.00000000
       1.00000000  1       1.00000000
       1.00000000  1       1.00000000
       1.00000000  1       1.00000000
       1.00000000  1       1.00000000
       1.00000000  1       1.00000000
       1.00000000  1       1.00000000
       1.00000000  1       1.00000000
       1.00000000  1       1.00000000
       1.00000000  1       1.00000000
       1.00000000  1       1.00000000
       1.00000000  1       1.00000000
       1.00000000  1       1.00000000
       1.00000000  1       1.00000000
       1.00000000  1       1.00000000
       1.00000000  1       1.00000000
       1.00000000  1       1.00000000
       1.00000000  1       1.00000000
       1.00000000  1       1.00000000
       1.00000000  1       1.00000000
       1.00000000  1       1.00000000
       1.00000000  1       1.00000000
       1.00000000  1       1.00000000
       1.00000000  1       1.00000000
       1.00000000  1       1.00000000
       1.00000000  1       1.00000000
       1.00000000  1       1.00000000
       1.00000000  1       1.00000000
       1.00000000  1       1.00000000
       1.00000000  1       1.00000000
       1.00000000  1       1.00000000
       1.00000000  1       1.00000000
       1.00000000  1       1.00000000
       1.00000000  1       1.00000000
       1.00000000  1       1.00000000
       1.00000000  1       1.00000000
       1.00000000  1       1.00000000
       1.00000000  1       1.00000000
       1.00000000  1       1.00000000
       1.00000000  1       1.00000000
       1.00000000  1       1.00000000
       1.00000000  1       1.00000000
       1.00000000  1       1.00000000
       1.00000000  1       1.00000000
       1.00000000  1       1.00000000
       1.00000000  1       1.00000000
       1.00000000  1       1.00000000
       1.00000000  1       1.00000000
       1.00000000  1       1.00000000
       1.00000000  1       1.00000000
       1.00000000  1       1.00000000
       1.00000000  1       1.00000000
       1.00000000  1       1.00000000
       1.00000000  1       1.00000000
       1.00000000  1       1.00000000
       1.00000000  1       1.00000000
       1.00000000  1       1.00000000
       1.00000000  1       1.00000000
       1.00000000  1       1.00000000
       1.00000000  1       1.00000000
       1.00000000  1       1.00000000
       1.00000000  1       1.00000000
       1.00000000  1       1.00000000
       1.00000000  1       1.00000000
       1.00000000  1       1.00000000
       1.00000000  1       1.00000000
       1.00000000  1       1.00000000
       1.00000000  1       1.00000000
       1.00000000  1       1.00000000
       1.00000000  1       1.00000000
       1.00000000  1       1.00000000
       1.00000000  1       1.00000000
       1.00000000  1       1.00000000
       1.00000000  1       1.00000000
       1.00000000  1       1.00000000
       1.00000000  1       1.00000000
       1.00000000  1       1.00000000
       1.00000000  1       1.00000000
       1.00000000  1       1.00000000
       1.00000000  1       1.00000000
       1.00000000  1       1.00000000
       1.00000000  1       1.00000000
       1.00000000  1       1.00000000
       1.00000000  1       1.00000000
       1.00000000  1       1.00000000
       1.00000000  1       1.00000000
       1.00000000  1       1.00000000
       1.00000000  1       1.00000000
       1.00000000  1       1.00000000
       1.00000000  1       1.00000000
       1.00000000  1       1.00000000
       1.00000000  1       1.00000000
       1.00000000  1       1.00000000
       1.00000000  1       1.00000000
       1.00000000  1       1.00000000
       1.00000000  1       1.00000000
       1.00000000  1       1.00000000
       1.00000000  1       1.00000000
       1.00000000  1       1.00000000
       1.00000000  1       1.00000000
       1.00000000  1       1.00000000
       1.00000000  1       1.00000000
       1.00000000  1       1.00000000
       1.00000000  1       1.00000000
       1.00000000  1       1.00000000
       1.00000000  1       1.00000000
       1.00000000  1       1.00000000
       1.00000000  1       1.00000000
       1.00000000  1       1.00000000
       1.00000000  1       1.00000000
       1.00000000  1       1.00000000
       1.00000000  1       1.00000000
       1.00000000  1       1.00000000
       1.00000000  1       1.00000000
       1.00000000  1       1.00000000
       1.00000000  1       1.00000000
       1.00000000  1       1.00000000
       1.00000000  1       1.00000000
       1.00000000  1       1.00000000
       1.00000000  1       1.00000000
       1.00000000  1       1.00000000
       1.00000000  1       1.00000000
       1.00000000  1       1.00000000
       1.00000000  1       1.00000000
       1.00000000  1       1.00000000
       1.00000000  1       1.00000000
       1.00000000  1       1.00000000
       1.00000000  1       1.00000000
       1.00000000  1       1.00000000
       1.00000000  1       1.00000000
       1.00000000  1       1.00000000
       1.00000000  1       1.00000000
       1.00000000  1       1.00000000
       1.00000000  1       1.00000000
       1.00000000  1       1.00000000
       1.00000000  1       1.00000000
       1.00000000  1       1.00000000
       1.00000000  1       1.00000000
       1.00000000  1       1.00000000
       1.00000000  1       1.00000000
       1.00000000  1       1.00000000
       1.00000000  1       1.00000000
       1.00000000  1       1.00000000
       1.00000000  1       1.00000000
       1.00000000  1       1.00000000
       1.00000000  1       1.00000000
       1.00000000  1       1.00000000
       1.00000000  1       1.00000000
       1.00000000  1       1.00000000
       1.00000000  1       1.00000000
       1.00000000  1       1.00000000
       1.00000000  1       1.00000000
       1.00000000  1       1.00000000
       1.00000000  1       1.00000000
       1.00000000  1       1.00000000
       1.00000000  1       1.00000000
       1.00000000  1       1.00000000
       1.00000000  1       1.00000000
       1.00000000  1       1.00000000
       1.00000000  1       1.00000000
       1.00000000  1       1.00000000
       1.00000000  1       1.00000000
       1.00000000  1       1.00000000
       1.00000000  1       1.00000000
       1.00000000  1       1.00000000
       1.00000000  1       1.00000000
       1.00000000  1       1.00000000
       1.00000000  1       1.00000000
       1.00000000  1       1.00000000
       1.00000000  1       1.00000000
       1.00000000  1       1.00000000
       1.00000000  1       1.00000000
       1.00000000  1       1.00000000
       1.00000000  1       1.00000000
       1.00000000  1       1.00000000
       1.00000000  1       1.00000000
       1.00000000  1       1.00000000
       1.00000000  1       1.00000000
       1.00000000  1       1.00000000
       1.00000000  1       1.00000000
       1.00000000  1       1.00000000
       1.00000000  1       1.00000000
       1.00000000  1       1.00000000
       1.00000000  1       1.00000000
       1.00000000  1       1.00000000
       1.00000000  1       1.00000000
       1.00000000  1       1.00000000
       1.00000000  1       1.00000000
       1.00000000  1       1.00000000
       1.00000000  1       1.00000000
       1.00000000  1       1.00000000
       1.00000000  1       1.00000000
       1.00000000  1       1.00000000
       1.00000000  1       1.00000000
       1.00000000  1       1.00000000
       1.00000000  1       1.00000000
       1.00000000  1       1.00000000
       1.00000000  1       1.00000000
       1.00000000  1       1.00000000
       1.00000000  1       1.00000000
       1.00000000  1       1.00000000
       1.00000000  1       1.00000000
       1.00000000  1       1.00000000
       1.00000000  1       1.00000000
       1.00000000  1       1.00000000
       1.00000000  1       1.00000000
       1.00000000  1       1.00000000
       1.00000000  1       1.00000000
       1.00000000  1       1.00000000
       1.00000000  1       1.00000000
       1.00000000  1       1.00000000
       1.00000000  1       1.00000000
       1.00000000  1       1.00000000
       1.00000000  1       1.00000000
       1.00000000  1       1.00000000
       1.00000000  1       1.00000000
       1.00000000  1       1.00000000
       1.00000000  1       1.00000000
       1.00000000  1       1.00000000
       1.00000000  1       1.00000000
       1.00000000  1       1.00000000
       1.00000000  1       1.00000000
       1.00000000  1       1.00000000
       1.00000000  1       1.00000000
       1.00000000  1       1.00000000
       1.00000000  1       1.00000000
       1.00000000  1       1.00000000
       1.00000000  1       1.00000000
       1.00000000  1       1.00000000
       1.00000000  1       1.00000000
       1.00000000  1       1.00000000
       1.00000000  1       1.00000000
       1.00000000  1       1.00000000
       1.00000000  1       1.00000000
       1.00000000  1       1.00000000
       1.00000000  1       1.00000000
       1.00000000  1       1.00000000
       1.00000000  1       1.00000000
       1.00000000  1       1.00000000
       1.00000000  1       1.00000000
       1.00000000  1       1.00000000
       1.00000000  1       1.00000000
       1.00000000  1       1.00000000
       1.00000000  1       1.00000000
       1.00000000  1       1.00000000
       1.00000000  1       1.00000000
       1.00000000  1       1.00000000
       1.00000000  1       1.00000000
       1.00000000  1       1.00000000
       1.00000000  1       1.00000000
       1.00000000  1       1.00000000
       1.00000000  1       1.00000000
       1.00000000  1       1.00000000
       1.00000000  1       1.00000000
       1.00000000  1       1.00000000
       1.00000000  1       1.00000000
       1.00000000  1       1.00000000
       1.00000000  1       1.00000000
       1.00000000  1       1.00000000
       1.00000000  1       1.00000000
       1.00000000  1       1.00000000
       1.00000000  1       1.00000000
       1.00000000  1       1.00000000
       1.00000000  1       1.00000000
       1.00000000  1       1.00000000
       1.00000000  1       1.00000000
       1.00000000  1       1.00000000
       1.00000000  1       1.00000000
       1.00000000  1       1.00000000
       1.00000000  1       1.00000000
       1.00000000  1       1.00000000
       1.00000000  1       1.00000000
       1.00000000  1       1.00000000
       1.00000000  1       1.00000000
       1.00000000  1       1.00000000
       1.00000000  1       1.00000000
       1.00000000  1       1.00000000
       1.00000000  1       1.00000000
       1.00000000  1       1.00000000
       1.00000000  1       1.00000000
       1.00000000  1       1.00000000
       1.00000000  1       1.00000000
       1.00000000  1       1.00000000
       1.00000000  1       1.00000000
       1.00000000  1       1.00000000
       1.00000000  1       1.00000000
       1.00000000  1       1.00000000
       1.00000000  1       1.00000000
       1.00000000  1       1.00000000
       1.00000000  1       1.00000000
       1.00000000  1       1.00000000
       1.00000000  1       1.00000000
       1.00000000  1       1.00000000
       1.00000000  1       1.00000000
       1.00000000  1       1.00000000
       1.00000000  1       1.00000000
       1.00000000  1       1.00000000
       1.00000000  1       1.00000000
       1.00000000  1       1.00000000
       1.00000000  1       1.00000000
       1.00000000  1       1.00000000
       1.00000000  1       1.00000000
       1.00000000  1       1.00000000
       1.00000000  1       1.00000000
       1.00000000  1       1.00000000
       1.00000000  1       1.00000000
       1.00000000  1       1.00000000
       1.00000000  1       1.00000000
       1.00000000  1       1.00000000
       1.00000000  1       1.00000000
       1.00000000  1       1.00000000
       1.00000000  1       1.00000000
       1.00000000  1       1.00000000
       1.00000000  1       1.00000000
       1.00000000  1       1.00000000
       1.00000000  1       1.00000000
       1.00000000  1       1.00000000
       1.00000000  1       1.00000000
       1.00000000  1       1.00000000
       1.00000000  1       1.00000000
       1.00000000  1       1.00000000
       1.00000000  1       1.00000000
       1.00000000  1       1.00000000
       1.00000000  1       1.00000000
       1.00000000  1       1.00000000
       1.00000000  1       1.00000000
       1.00000000  1       1.00000000
       1.00000000  1       1.00000000
       1.00000000  1       1.00000000
       1.00000000  1       1.00000000
       1.00000000  1       1.00000000
       1.00000000  1       1.00000000
       1.00000000  1       1.00000000
       1.00000000  1       1.00000000
       1.00000000  1       1.00000000
       1.00000000  1       1.00000000
       1.00000000  1       1.00000000
       1.00000000  1       1.00000000
       1.00000000  1       1.00000000
       1.00000000  1       1.00000000
       1.00000000  1       1.00000000
       1.00000000  1       1.00000000
       1.00000000  1       1.00000000
       1.00000000  1       1.00000000
       1.00000000  1       1.00000000
       1.00000000  1       1.00000000
       1.00000000  1       1.00000000
       1.00000000  1       1.00000000
       1.00000000  1       1.00000000
       1.00000000  1       1.00000000
       1.00000000  1       1.00000000
       1.00000000  1       1.00000000
       1.00000000  1       1.00000000
       1.00000000  1       1.00000000
       1.00000000  1       1.00000000
       1.00000000  1       1.00000000
       1.00000000  1       1.00000000
       1.00000000  1       1.00000000
       1.00000000  1       1.00000000
       1.00000000  1       1.00000000
       1.00000000  1       1.00000000
       1.00000000  1       1.00000000
       1.00000000  1       1.00000000
       1.00000000  1       1.00000000
       1.00000000  1       1.00000000
       1.00000000  1       1.00000000
       1.00000000  1       1.00000000
       1.00000000  1       1.00000000
       1.00000000  1       1.00000000
       1.00000000  1       1.00000000
       1.00000000  1       1.00000000
       1.00000000  1       1.00000000
       1.00000000  1       1.00000000
       1.00000000  1       1.00000000
       1.00000000  1       1.00000000
       1.00000000  1       1.00000000
       1.00000000  1       1.00000000
       1.00000000  1       1.00000000
       1.00000000  1       1.00000000
       1.00000000  1       1.00000000
       1.00000000  1       1.00000000
       1.00000000  1       1.00000000
       1.00000000  1       1.00000000
       1.00000000  1       1.00000000
       1.00000000  1       1.00000000
       1.00000000  1       1.00000000
       1.00000000  1       1.00000000
       1.00000000  1       1.00000000
       1.00000000  1       1.00000000
       1.00000000  1       1.00000000
       1.00000000  1       1.00000000
       1.00000000  1       1.00000000
       1.00000000  1       1.00000000
       1.00000000  1       1.00000000
       1.00000000  1       1.00000000
       1.00000000  1       1.00000000
       1.00000000  1       1.00000000
       1.00000000  1       1.00000000
       1.00000000  1       1.00000000
       1.00000000  1       1.00000000
       1.00000000  1       1.00000000
       1.00000000  1       1.00000000
       1.00000000  1       1.00000000
       1.00000000  1       1.00000000
       1.00000000  1       1.00000000
       1.00000000  1       1.00000000
       1.00000000  1       1.00000000
       1.00000000  1       1.00000000
       1.00000000  1       1.00000000
       1.00000000  1       1.00000000
       1.00000000  1       1.00000000
       1.00000000  1       1.00000000
       1.00000000  1       1.00000000
       1.00000000  1       1.00000000
       1.00000000  1       1.00000000
       1.00000000  1       1.00000000
       1.00000000  1       1.00000000
       1.00000000  1       1.00000000
       1.00000000  1       1.00000000
       1.00000000  1       1.00000000
       1.00000000  1       1.00000000
       1.00000000  1       1.00000000
       1.00000000  1       1.00000000