# WEL package for  MODFLOW-NWT, generated by Flopy.
     13900         0 
SPECIFY        0.1         50
     13900         0 # stress period 1
         1        29         2      -2.0169773
         1        30         2      -2.0169773
         1        31         2      -4.0341434
         1        29         3      -2.0169773
         1        30         3      -2.0169773
         1        31         3      -4.0341434
         1        29         4      -2.0169773
         1        30         4      -2.0169773
         1        32         4      -2.0171664
         1        33         4      -2.0171664
         1        34         4       -2.017261
         1        35         4       -2.017261
         1        43         4      -2.5496616
         1        44         4      -2.5496616
         1        45         4      -2.5497806
         1        46         4      -2.5497806
         1        29         5      -2.0169773
         1        30         5      -2.0169773
         1        32         5      -2.0171664
         1        33         5      -2.0171664
         1        34         5       -2.017261
         1        35         5       -2.017261
         1        43         5      -2.5496616
         1        44         5      -2.5496616
         1        45         5      -2.5497806
         1        46         5      -2.5497806
         1        29         6      -2.0169773
         1        30         6      -2.0169773
         1        32         6      -2.0171664
         1        33         6      -2.0171664
         1        34         6       -2.017261
         1        35         6       -2.017261
         1        36         6      -2.0173554
         1        37         6      -2.0173554
         1        40         6       -2.549423
         1        41         6       -2.549423
         1        42         6      -5.0990844
         1        45         6      -2.5497806
         1        46         6      -2.5497806
         1        29         7      -2.0169773
         1        30         7      -2.0169773
         1        32         7      -2.0171664
         1        33         7      -2.0171664
         1        34         7       -2.017261
         1        35         7       -2.017261
         1        36         7      -2.0173554
         1        37         7      -2.0173554
         1        40         7       -2.549423
         1        41         7       -2.549423
         1        42         7      -5.0990844
         1        45         7      -2.5497806
         1        46         7      -2.5497806
         1        27         8      -2.0168827
         1        28         8      -2.0168827
         1        29         8      -2.0169773
         1        30         8      -2.0169773
         1        32         8      -4.0343328
         1        33         8      -4.0343328
         1        34         8       -4.034522
         1        35         8       -4.034522
         1        36         8       -4.034711
         1        37         8       -4.034711
         1        40         8       -5.098846
         1        41         8       -5.098846
         1        42         8      -10.198169
         1        43         8      -0.5094224
         1        44         8      -0.5094224
         1        27         9      -2.0168827
         1        28         9      -2.0168827
         1        29         9      -2.0169773
         1        30         9      -2.0169773
         1        32         9      -2.0171664
         1        33         9      -2.0171664
         1        34         9       -2.017261
         1        35         9       -2.017261
         1        36         9      -2.0173554
         1        37         9      -2.0173554
         1        38         9        -2.01745
         1        39         9        -2.01745
         1        42         9      -5.0990844
         1        43         9      -2.5496616
         1        44         9      -2.5496616
         1        25        10      -4.0335755
         1        26        10      -4.0335755
         1        32        10      -2.0171664
         1        33        10      -2.0171664
         1        34        10       -2.017261
         1        35        10       -2.017261
         1        36        10      -2.0173554
         1        37        10      -2.0173554
         1        38        10        -2.01745
         1        39        10        -2.01745
         1        42        10      -5.0990844
         1        43        10      -2.5496616
         1        44        10      -2.5496616
         1        25        11      -2.0167878
         1        26        11      -2.0167878
         1        27        11      -2.0168827
         1        28        11      -2.0168827
         1        31        11     -0.40301096
         1        32        11      -2.0171664
         1        33        11      -2.0171664
         1        34        11       -2.017261
         1        35        11       -2.017261
         1        40        11       -2.549423
         1        41        11       -2.549423
         1        43        11      -3.3995488
         1        44        11      -3.3995488
         1        45        11      -2.5497806
         1        46        11      -2.5497806
         1        25        12      -2.0167878
         1        26        12      -2.0167878
         1        27        12      -2.0168827
         1        28        12      -2.0168827
         1        31        12     -0.40301096
         1        32        12      -2.0171664
         1        33        12      -2.0171664
         1        34        12       -2.017261
         1        35        12       -2.017261
         1        40        12       -2.549423
         1        41        12       -2.549423
         1        44        12      -3.3995488
         1        45        12      -2.5497806
         1        46        12      -2.5497806
         1        23        13       -5.901099
         1        24        13       -5.901099
         1        25        13       -5.901376
         1        26        13       -5.901376
         1        27        13       -5.901654
         1        28        13       -5.901654
         1        31        13      -11.804414
         1        32        13       -5.902484
         1        33        13       -5.902484
         1        34        13       -5.902761
         1        35        13       -5.902761
         1        36        13       -5.903037
         1        37        13       -5.903037
         1        38        13      -5.9033136
         1        39        13      -5.9033136
         1        40        13       -2.496985
         1        41        13       -2.496985
         1        42        13      -2.4971018
         1        43        13      -2.4971018
         1        47        13       -2.497452
         1        48        13       -2.497452
         1        23        14       -5.901099
         1        24        14       -5.901099
         1        25        14       -5.901376
         1        26        14       -5.901376
         1        27        14       -5.901654
         1        28        14       -5.901654
         1        31        14      -11.804414
         1        32        14       -5.902484
         1        33        14       -5.902484
         1        34        14       -5.902761
         1        35        14       -5.902761
         1        36        14       -5.903037
         1        37        14       -5.903037
         1        38        14      -5.9033136
         1        39        14      -5.9033136
         1        40        14       -2.496985
         1        41        14       -2.496985
         1        42        14      -2.4971018
         1        43        14      -2.4971018
         1        47        14       -2.497452
         1        48        14       -2.497452
         1        21        15      -5.9008217
         1        22        15      -5.9008217
         1        23        15       -5.901099
         1        24        15       -5.901099
         1        27        15       -5.901654
         1        28        15       -5.901654
         1        31        15      -11.804414
         1        32        15       -5.902484
         1        33        15       -5.902484
         1        34        15       -5.902761
         1        35        15       -5.902761
         1        36        15       -5.903037
         1        37        15       -5.903037
         1        38        15      -11.806627
         1        39        15      -11.806627
         1        40        15        -4.99397
         1        41        15        -4.99397
         1        42        15      -4.9942036
         1        43        15      -4.9942036
         1        44        15       -9.988875
         1        45        15     -0.48947772
         1        46        15     -0.48947772
         1        47        15       -4.994904
         1        48        15       -4.994904
         1        51        15      -4.9953704
         1        52        15      -4.9953704
         1        21        16      -5.9008217
         1        22        16      -5.9008217
         1        23        16       -5.901099
         1        24        16       -5.901099
         1        27        16       -5.901654
         1        28        16       -5.901654
         1        31        16      -11.804414
         1        32        16       -5.902484
         1        33        16       -5.902484
         1        34        16       -5.902761
         1        35        16       -5.902761
         1        36        16       -5.903037
         1        37        16       -5.903037
         1        38        16      -5.9033136
         1        39        16      -5.9033136
         1        44        16      -0.4894549
         1        47        16       -2.497452
         1        48        16       -2.497452
         1        49        16      -0.2447617
         1        50        16      -0.2447617
         1        51        16     -0.24477315
         1        52        16     -0.24477315
         1        21        17      -11.801643
         1        22        17      -11.801643
         1        23        17      -11.802198
         1        24        17      -11.802198
         1        27        17      -11.803308
         1        28        17      -11.803308
         1        34        17      -11.805522
         1        35        17      -11.805522
         1        36        17      -11.806074
         1        37        17      -11.806074
         1        38        17      -5.9033136
         1        39        17      -5.9033136
         1        44        17      -0.4894549
         1        47        17       -2.497452
         1        48        17       -2.497452
         1        49        17      -0.2447617
         1        50        17      -0.2447617
         1        51        17     -0.24477315
         1        52        17     -0.24477315
         1        21        18      -5.9008217
         1        22        18      -5.9008217
         1        27        18     -0.58603424
         1        28        18     -0.58603424
         1        31        18      -11.804414
         1        32        18       -5.902484
         1        33        18       -5.902484
         1        34        18       -5.902761
         1        35        18       -5.902761
         1        36        18       -5.903037
         1        37        18       -5.903037
         1        38        18      -5.9033136
         1        39        18      -5.9033136
         1        42        18      -2.4971018
         1        43        18      -2.4971018
         1        47        18       -2.497452
         1        48        18       -2.497452
         1        49        18      -2.4975684
         1        50        18      -2.4975684
         1        21        19      -5.9008217
         1        22        19      -5.9008217
         1        27        19     -0.58603424
         1        28        19     -0.58603424
         1        31        19      -11.804414
         1        32        19       -5.902484
         1        33        19       -5.902484
         1        34        19       -5.902761
         1        35        19       -5.902761
         1        36        19       -5.903037
         1        37        19       -5.903037
         1        38        19      -5.9033136
         1        39        19      -5.9033136
         1        42        19      -2.4971018
         1        43        19      -2.4971018
         1        47        19       -2.497452
         1        48        19       -2.497452
         1        49        19      -2.4975684
         1        50        19      -2.4975684
         1        21        20      -5.9008217
         1        22        20      -5.9008217
         1        23        20       -5.901099
         1        24        20       -5.901099
         1        29        20      -0.5860617
         1        30        20      -0.5860617
         1        31        20      -7.8696094
         1        32        20      -7.8699784
         1        33        20      -7.8699784
         1        34        20       -5.902761
         1        35        20       -5.902761
         1        36        20       -5.903037
         1        37        20       -5.903037
         1        38        20      -5.9033136
         1        39        20      -5.9033136
         1        40        20       -2.496985
         1        41        20       -2.496985
         1        47        20       -2.497452
         1        48        20       -2.497452
         1        49        20      -2.4975684
         1        50        20      -2.4975684
         1        53        20      -2.4978015
         1        54        20      -2.4978015
         1        73        20      -3.8214886
         1        74        20      -3.8214886
         1        21        21      -5.9008217
         1        22        21      -5.9008217
         1        23        21       -5.901099
         1        24        21       -5.901099
         1        29        21      -0.5860617
         1        30        21      -0.5860617
         1        31        21      -7.8696094
         1        32        21      -7.8696094
         1        33        21      -7.8699784
         1        34        21       -5.902761
         1        35        21       -5.902761
         1        36        21       -5.903037
         1        37        21       -5.903037
         1        38        21      -5.9033136
         1        39        21      -5.9033136
         1        40        21       -2.496985
         1        41        21       -2.496985
         1        47        21       -2.497452
         1        48        21       -2.497452
         1        49        21      -2.4975684
         1        50        21      -2.4975684
         1        53        21      -2.4978015
         1        54        21      -2.4978015
         1        73        21      -3.8214886
         1        74        21      -3.8214886
         1        76        21      -5.0955544
         1        77        21      -1.5996201
         1        78        21      -1.5996201
         1        79        21      -3.1993885
         1        21        22      -5.9008217
         1        22        22      -5.9008217
         1        23        22       -5.901099
         1        24        22       -5.901099
         1        29        22       -5.901931
         1        30        22       -5.901931
         1        31        22       -5.902207
         1        32        22       -5.902207
         1        33        22      -11.804968
         1        34        22       -5.902761
         1        35        22       -5.902761
         1        38        22      -5.9033136
         1        39        22      -5.9033136
         1        40        22       -2.496985
         1        41        22       -2.496985
         1        44        22       -9.988875
         1        47        22       -4.994904
         1        48        22       -4.994904
         1        49        22      -4.9951367
         1        50        22      -4.9951367
         1        53        22       -4.995603
         1        54        22       -4.995603
         1        71        22       -7.642623
         1        72        22       -7.642623
         1        75        22      -5.0955544
         1        76        22      -5.0955544
         1        77        22      -1.5996201
         1        78        22      -1.5996201
         1        79        22      -3.1993885
         1        21        23      -5.9008217
         1        22        23      -5.9008217
         1        23        23       -5.901099
         1        24        23       -5.901099
         1        29        23       -5.901931
         1        30        23       -5.901931
         1        31        23       -5.902207
         1        32        23       -5.902207
         1        33        23      -11.804968
         1        34        23       -5.902761
         1        35        23       -5.902761
         1        38        23      -5.9033136
         1        39        23      -5.9033136
         1        40        23       -2.496985
         1        41        23       -2.496985
         1        47        23       -2.497452
         1        48        23       -2.497452
         1        49        23      -2.4975684
         1        50        23      -2.4975684
         1        51        23      -2.4976852
         1        52        23      -2.4976852
         1        71        23      -3.8213115
         1        72        23      -3.8213115
         1        75        23       -3.821666
         1        76        23       -3.821666
         1        77        23      -1.5996201
         1        78        23      -1.5996201
         1        79        23      -3.1993885
         1        80        23      -1.5997682
         1        81        23      -1.5997682
         1        82        23      -1.5998423
         1        83        23      -1.5998423
         1        21        24      -11.801643
         1        22        24      -11.801643
         1        23        24      -11.802198
         1        24        24      -11.802198
         1        25        24      -11.802752
         1        26        24      -11.802752
         1        31        24      -11.804414
         1        32        24      -11.804414
         1        33        24      -23.609936
         1        34        24      -11.805522
         1        35        24      -11.805522
         1        38        24      -11.806627
         1        39        24      -11.806627
         1        40        24        -4.99397
         1        41        24        -4.99397
         1        42        24      -4.9942036
         1        43        24      -4.9942036
         1        47        24       -2.497452
         1        48        24       -2.497452
         1        49        24      -2.4975684
         1        50        24      -2.4975684
         1        51        24      -2.4976852
         1        52        24      -2.4976852
         1        71        24      -3.8213115
         1        72        24      -3.8213115
         1        75        24       -3.821666
         1        76        24       -3.821666
         1        77        24      -1.5996201
         1        78        24      -1.5996201
         1        79        24      -3.1993885
         1        80        24      -1.5997682
         1        81        24      -1.5997682
         1        82        24      -1.5998423
         1        83        24      -1.5998423
         1        21        25      -5.9008217
         1        22        25      -5.9008217
         1        23        25       -5.901099
         1        24        25       -5.901099
         1        25        25       -5.901376
         1        26        25       -5.901376
         1        31        25       -5.902207
         1        32        25       -5.902207
         1        33        25      -11.804968
         1        34        25       -5.902761
         1        35        25       -5.902761
         1        36        25       -5.903037
         1        37        25       -5.903037
         1        38        25     -0.58619905
         1        39        25     -0.58619905
         1        40        25       -2.496985
         1        41        25       -2.496985
         1        42        25      -2.4971018
         1        43        25      -2.4971018
         1        44        25      -4.9944377
         1        49        25      -2.4975684
         1        50        25      -2.4975684
         1        51        25      -2.4976852
         1        52        25      -2.4976852
         1        55        25       -2.497918
         1        56        25       -2.497918
         1        69        25      -3.8211343
         1        70        25      -3.8211343
         1        71        25      -3.8213115
         1        72        25      -3.8213115
         1        75        25       -3.821666
         1        76        25       -3.821666
         1        79        25     -0.21329257
         1        80        25      -2.1330242
         1        81        25      -2.1330242
         1        21        26      -5.9008217
         1        22        26      -5.9008217
         1        23        26       -5.901099
         1        24        26       -5.901099
         1        25        26       -5.901376
         1        26        26       -5.901376
         1        31        26       -5.902207
         1        32        26       -5.902207
         1        33        26      -11.804968
         1        34        26       -5.902761
         1        35        26       -5.902761
         1        36        26       -5.903037
         1        37        26       -5.903037
         1        38        26     -0.58619905
         1        39        26     -0.58619905
         1        40        26       -2.496985
         1        41        26       -2.496985
         1        42        26      -2.4971018
         1        43        26      -2.4971018
         1        44        26      -4.9944377
         1        49        26      -2.4975684
         1        50        26      -2.4975684
         1        51        26      -2.4976852
         1        52        26      -2.4976852
         1        55        26       -2.497918
         1        56        26       -2.497918
         1        69        26      -3.8211343
         1        70        26      -3.8211343
         1        71        26      -3.8213115
         1        72        26      -3.8213115
         1        75        26       -3.821666
         1        76        26       -3.821666
         1        79        26     -0.21329257
         1        80        26     -0.21329257
         1        81        26      -2.1330242
         1        20        27      -16.164043
         1        21        27      -5.9008217
         1        22        27      -5.9008217
         1        25        27       -5.901376
         1        26        27       -5.901376
         1        29        27       -5.901931
         1        30        27       -5.901931
         1        31        27       -5.902207
         1        32        27       -5.902207
         1        33        27      -11.804968
         1        34        27       -5.902761
         1        35        27       -5.902761
         1        36        27       -5.903037
         1        37        27       -5.903037
         1        40        27       -2.496985
         1        41        27       -2.496985
         1        42        27      -2.4971018
         1        43        27      -2.4971018
         1        45        27      -2.4973354
         1        46        27      -2.4973354
         1        47        27       -2.497452
         1        48        27       -2.497452
         1        51        27     -0.24477315
         1        52        27     -0.24477315
         1        55        27       -2.497918
         1        56        27       -2.497918
         1        66        27      -3.8207793
         1        67        27      -3.8207793
         1        68        27      -7.6419134
         1        71        27      -3.8213115
         1        72        27      -3.8213115
         1        75        27       -3.821666
         1        76        27       -3.821666
         1        81        27      -3.1995363
         1        82        27      -1.5998423
         1        83        27      -1.5998423
         1        84        27      -3.1998324
         1        85        27      -3.1998324
         1        20        28      -16.164043
         1        21        28      -5.9008217
         1        22        28      -5.9008217
         1        25        28       -5.901376
         1        26        28       -5.901376
         1        29        28       -5.901931
         1        30        28       -5.901931
         1        31        28       -5.902207
         1        32        28       -5.902207
         1        33        28      -11.804968
         1        34        28       -5.902761
         1        35        28       -5.902761
         1        36        28       -5.903037
         1        37        28       -5.903037
         1        40        28       -2.496985
         1        41        28       -2.496985
         1        42        28      -2.4971018
         1        43        28      -2.4971018
         1        45        28      -2.4973354
         1        46        28      -2.4973354
         1        47        28       -2.497452
         1        48        28       -2.497452
         1        51        28     -0.24477315
         1        52        28     -0.24477315
         1        55        28       -2.497918
         1        56        28       -2.497918
         1        66        28      -3.8207793
         1        67        28      -3.8207793
         1        68        28      -7.6419134
         1        71        28      -3.8213115
         1        72        28      -3.8213115
         1        75        28       -3.821666
         1        76        28       -3.821666
         1        81        28      -3.1995363
         1        82        28      -1.5998423
         1        83        28      -1.5998423
         1        84        28      -1.5999162
         1        85        28      -1.5999162
         1        86        28      -1.5999902
         1        87        28      -1.5999902
         1        20        29      -10.776029
         1        21        29       -7.867762
         1        22        29       -7.867762
         1        29        29       -5.901931
         1        30        29       -5.901931
         1        31        29       -5.902207
         1        32        29       -5.902207
         1        33        29      -11.804968
         1        38        29      -5.9033136
         1        39        29      -5.9033136
         1        40        29       -2.496985
         1        41        29       -2.496985
         1        42        29      -2.4971018
         1        43        29      -2.4971018
         1        44        29      -4.9944377
         1        45        29      -2.4973354
         1        46        29      -2.4973354
         1        47        29       -2.497452
         1        48        29       -2.497452
         1        49        29      -0.2447617
         1        50        29      -0.2447617
         1        51        29      -0.4895463
         1        52        29      -0.4895463
         1        55        29     -0.48959193
         1        56        29     -0.48959193
         1        66        29      -7.6415586
         1        67        29      -7.6415586
         1        68        29      -15.283827
         1        77        29      -3.1992402
         1        78        29      -3.1992402
         1        79        29      -3.1993885
         1        80        29      -3.1993885
         1        81        29      -6.3990726
         1        82        29      -3.1996846
         1        83        29      -3.1996846
         1        84        29      -1.5999162
         1        85        29      -1.5999162
         1        86        29      -1.5999902
         1        87        29      -1.5999902
         1        20        30      -10.776029
         1        21        30      -10.776029
         1        22        30       -7.867762
         1        29        30       -5.901931
         1        30        30       -5.901931
         1        31        30       -5.902207
         1        32        30       -5.902207
         1        33        30      -11.804968
         1        38        30      -5.9033136
         1        39        30      -5.9033136
         1        40        30       -2.496985
         1        41        30       -2.496985
         1        42        30      -2.4971018
         1        43        30      -2.4971018
         1        44        30      -4.9944377
         1        45        30      -2.4973354
         1        46        30      -2.4973354
         1        47        30       -2.497452
         1        48        30       -2.497452
         1        49        30      -0.2447617
         1        50        30      -0.2447617
         1        53        30      -0.2582975
         1        54        30      -0.2582975
         1        66        30       -4.707139
         1        67        30       -4.707139
         1        68        30       -9.414715
         1        69        30      -4.7075763
         1        70        30      -4.7075763