# NWT package for  MODFLOW-NWT, generated by Flopy.
 1.000e-02 7.000e+03       100 1.000e-05         1         0         0    SIMPLE  CONTINUE
