# WEL package for  MODFLOW-NWT, generated by Flopy.
     12376         0 
SPECIFY        0.1         50
     12376         0 # stress period 1
         1        29         2      -2.0001178
         1        30         2      -2.0001178
         1        31         2      -4.0004225
         1        29         3      -2.0001178
         1        30         3      -2.0001178
         1        31         3      -4.0004225
         1        29         4      -2.0001178
         1        30         4      -2.0001178
         1        32         4      -2.0003052
         1        33         4      -2.0003052
         1        34         4       -2.000399
         1        35         4       -2.000399
         1        43         4      -2.4696748
         1        44         4      -2.4696748
         1        45         4      -2.4697902
         1        46         4      -2.4697902
         1        29         5      -2.0001178
         1        30         5      -2.0001178
         1        32         5      -2.0003052
         1        33         5      -2.0003052
         1        34         5       -2.000399
         1        35         5       -2.000399
         1        43         5      -2.4696748
         1        44         5      -2.4696748
         1        45         5      -2.4697902
         1        46         5      -2.4697902
         1        29         6      -2.0001178
         1        30         6      -2.0001178
         1        32         6      -2.0003052
         1        33         6      -2.0003052
         1        34         6       -2.000399
         1        35         6       -2.000399
         1        36         6      -2.0004928
         1        37         6      -2.0004928
         1        40         6      -2.4694438
         1        41         6      -2.4694438
         1        42         6       -4.939119
         1        45         6      -2.4697902
         1        46         6      -2.4697902
         1        29         7      -2.0001178
         1        30         7      -2.0001178
         1        32         7      -2.0003052
         1        33         7      -2.0003052
         1        34         7       -2.000399
         1        35         7       -2.000399
         1        36         7      -2.0004928
         1        37         7      -2.0004928
         1        40         7      -2.4694438
         1        41         7      -2.4694438
         1        42         7       -4.939119
         1        45         7      -2.4697902
         1        46         7      -2.4697902
         1        27         8      -2.0000238
         1        28         8      -2.0000238
         1        29         8      -2.0001178
         1        30         8      -2.0001178
         1        32         8      -4.0006104
         1        33         8      -4.0006104
         1        34         8       -4.000798
         1        35         8       -4.000798
         1        36         8      -4.0009856
         1        37         8      -4.0009856
         1        40         8      -4.9388876
         1        41         8      -4.9388876
         1        42         8       -9.878238
         1        43         8      -0.4939351
         1        44         8      -0.4939351
         1        27         9      -2.0000238
         1        28         9      -2.0000238
         1        29         9      -2.0001178
         1        30         9      -2.0001178
         1        32         9      -2.0003052
         1        33         9      -2.0003052
         1        34         9       -2.000399
         1        35         9       -2.000399
         1        36         9      -2.0004928
         1        37         9      -2.0004928
         1        38         9      -2.0005863
         1        39         9      -2.0005863
         1        42         9       -4.939119
         1        43         9      -2.4696748
         1        44         9      -2.4696748
         1        25        10      -3.9998593
         1        26        10      -3.9998593
         1        27        10      -4.0000477
         1        28        10      -4.0000477
         1        32        10      -2.0003052
         1        33        10      -2.0003052
         1        34        10       -2.000399
         1        35        10       -2.000399
         1        36        10      -2.0004928
         1        37        10      -2.0004928
         1        38        10      -2.0005863
         1        39        10      -2.0005863
         1        42        10       -4.939119
         1        43        10      -2.4696748
         1        44        10      -2.4696748
         1        25        11      -1.9999297
         1        26        11      -1.9999297
         1        27        11      -2.0000238
         1        28        11      -2.0000238
         1        31        11      -0.3429718
         1        32        11      -2.0003052
         1        33        11      -2.0003052
         1        34        11       -2.000399
         1        35        11       -2.000399
         1        43        11      -3.2928998
         1        44        11      -3.2928998
         1        45        11      -2.4697902
         1        46        11      -2.4697902
         1        25        12      -1.9999297
         1        26        12      -1.9999297
         1        27        12      -2.0000238
         1        28        12      -2.0000238
         1        31        12      -0.3429718
         1        32        12      -2.0003052
         1        33        12      -2.0003052
         1        34        12       -2.000399
         1        35        12       -2.000399
         1        44        12      -3.2928998
         1        45        12      -2.4697902
         1        46        12      -2.4697902
         1        23        13       -5.561971
         1        24        13       -5.561971
         1        25        13      -5.5622325
         1        26        13      -5.5622325
         1        27        13      -5.5624943
         1        28        13      -5.5624943
         1        31        13     -0.73868287
         1        32        13       -5.563277
         1        33        13       -5.563277
         1        34        13      -5.5635376
         1        35        13      -5.5635376
         1        38        13       -5.564059
         1        39        13       -5.564059
         1        40        13      -2.4339783
         1        41        13      -2.4339783
         1        42        13      -2.4340925
         1        43        13      -2.4340925
         1        47        13      -2.4344337
         1        48        13      -2.4344337
         1        23        14       -5.561971
         1        24        14       -5.561971
         1        25        14      -5.5622325
         1        26        14      -5.5622325
         1        27        14      -5.5624943
         1        28        14      -5.5624943
         1        31        14     -0.73868287
         1        32        14       -5.563277
         1        33        14       -5.563277
         1        34        14      -5.5635376
         1        35        14      -5.5635376
         1        38        14       -5.564059
         1        39        14       -5.564059
         1        40        14      -2.4339783
         1        41        14      -2.4339783
         1        42        14      -2.4340925
         1        43        14      -2.4340925
         1        47        14      -2.4344337
         1        48        14      -2.4344337
         1        21        15        -5.56171
         1        22        15        -5.56171
         1        27        15      -5.5624943
         1        28        15      -5.5624943
         1        31        15     -0.61048216
         1        32        15       -5.563277
         1        33        15       -5.563277
         1        34        15      -5.5635376
         1        35        15      -5.5635376
         1        36        15       -5.563798
         1        37        15       -5.563798
         1        40        15      -4.8679566
         1        41        15      -4.8679566
         1        42        15       -4.868185
         1        43        15       -4.868185
         1        44        15       -9.736826
         1        47        15      -4.8688674
         1        48        15      -4.8688674
         1        51        15       -4.869322
         1        52        15       -4.869322
         1        21        16        -5.56171
         1        22        16        -5.56171
         1        27        16      -5.5624943
         1        28        16      -5.5624943
         1        31        16     -0.61048216
         1        32        16       -5.563277
         1        33        16       -5.563277
         1        34        16      -5.5635376
         1        35        16      -5.5635376
         1        36        16       -5.563798
         1        37        16       -5.563798
         1        38        16       -5.564059
         1        39        16       -5.564059
         1        44        16     -0.48684138
         1        47        16      -2.4344337
         1        48        16      -2.4344337
         1        51        16     -0.22576565
         1        52        16     -0.22576565
         1        21        17       -11.12342
         1        22        17       -11.12342
         1        23        17      -11.123942
         1        24        17      -11.123942
         1        27        17      -11.124989
         1        28        17      -11.124989
         1        34        17      -11.127075
         1        35        17      -11.127075
         1        36        17      -11.127596
         1        37        17      -11.127596
         1        38        17       -5.564059
         1        39        17       -5.564059
         1        44        17     -0.48684138
         1        47        17      -2.4344337
         1        48        17      -2.4344337
         1        51        17     -0.22576565
         1        52        17     -0.22576565
         1        21        18        -5.56171
         1        22        18        -5.56171
         1        31        18      -0.9286108
         1        32        18       -5.563277
         1        33        18       -5.563277
         1        34        18      -5.5635376
         1        35        18      -5.5635376
         1        36        18       -5.563798
         1        37        18       -5.563798
         1        38        18       -5.564059
         1        39        18       -5.564059
         1        42        18      -2.4340925
         1        43        18      -2.4340925
         1        47        18      -2.4344337
         1        48        18      -2.4344337
         1        21        19        -5.56171
         1        22        19        -5.56171
         1        31        19      -0.9286108
         1        32        19       -5.563277
         1        33        19       -5.563277
         1        34        19      -5.5635376
         1        35        19      -5.5635376
         1        36        19       -5.563798
         1        37        19       -5.563798
         1        38        19       -5.564059
         1        39        19       -5.564059
         1        42        19      -2.4340925
         1        43        19      -2.4340925
         1        47        19      -2.4344337
         1        48        19      -2.4344337
         1        21        20        -5.56171
         1        22        20        -5.56171
         1        23        20       -5.561971
         1        24        20       -5.561971
         1        29        20     -0.04103594
         1        30        20     -0.04103594
         1        31        20       -7.417354
         1        32        20       -7.417702
         1        33        20       -7.417702
         1        34        20      -5.5635376
         1        35        20      -5.5635376
         1        36        20       -5.563798
         1        37        20       -5.563798
         1        38        20       -5.564059
         1        39        20       -5.564059
         1        40        20      -2.4339783
         1        41        20      -2.4339783
         1        47        20      -2.4344337
         1        48        20      -2.4344337
         1        49        20     -0.17666325
         1        50        20     -0.17666325
         1        53        20      -2.4347744
         1        54        20      -2.4347744
         1        73        20       -3.654199
         1        74        20       -3.654199
         1        21        21        -5.56171
         1        22        21        -5.56171
         1        23        21       -5.561971
         1        24        21       -5.561971
         1        29        21     -0.04103594
         1        30        21     -0.04103594
         1        31        21       -7.417354
         1        32        21       -7.417354
         1        33        21       -7.417702
         1        34        21      -5.5635376
         1        35        21      -5.5635376
         1        36        21       -5.563798
         1        37        21       -5.563798
         1        38        21       -5.564059
         1        39        21       -5.564059
         1        40        21      -2.4339783
         1        41        21      -2.4339783
         1        47        21      -2.4344337
         1        48        21      -2.4344337
         1        49        21     -0.17666325
         1        50        21     -0.17666325
         1        53        21      -2.4347744
         1        54        21      -2.4347744
         1        73        21       -3.654199
         1        74        21       -3.654199
         1        76        21      -4.8724914
         1        77        21      -1.3587129
         1        78        21      -1.3587129
         1        79        21      -2.7175517
         1        21        22        -5.56171
         1        22        22        -5.56171
         1        29        22     -0.18729039
         1        30        22     -0.18729039
         1        33        22      -11.126554
         1        34        22      -5.5635376
         1        35        22      -5.5635376
         1        38        22       -5.564059
         1        39        22       -5.564059
         1        40        22      -2.4339783
         1        41        22      -2.4339783
         1        44        22       -9.736826
         1        47        22      -4.8688674
         1        48        22      -4.8688674
         1        49        22      -4.8690944
         1        50        22      -4.8690944
         1        53        22       -4.869549
         1        54        22       -4.869549
         1        71        22       -7.308059
         1        72        22       -7.308059
         1        75        22      -4.8724914
         1        76        22      -4.8724914
         1        77        22      -1.3587129
         1        78        22      -1.3587129
         1        79        22      -2.7175517
         1        21        23        -5.56171
         1        22        23        -5.56171
         1        29        23     -0.18729039
         1        30        23     -0.18729039
         1        33        23      -11.126554
         1        34        23      -5.5635376
         1        35        23      -5.5635376
         1        38        23       -5.564059
         1        39        23       -5.564059
         1        40        23      -2.4339783
         1        41        23      -2.4339783
         1        49        23      -2.4345472
         1        50        23      -2.4345472
         1        71        23      -3.6540296
         1        72        23      -3.6540296
         1        75        23      -3.6543684
         1        76        23      -3.6543684
         1        77        23      -1.3587129
         1        78        23      -1.3587129
         1        80        23      -1.3588387
         1        81        23      -1.3588387
         1        82        23      -1.3589016
         1        83        23      -1.3589016
         1        21        24       -11.12342
         1        22        24       -11.12342
         1        23        24      -11.123942
         1        24        24      -11.123942
         1        25        24      -11.124465
         1        26        24      -11.124465
         1        31        24      -1.1126034
         1        32        24      -1.1126034
         1        33        24      -22.253107
         1        34        24      -11.127075
         1        35        24      -11.127075
         1        38        24      -11.128118
         1        39        24      -11.128118
         1        40        24      -4.8679566
         1        41        24      -4.8679566
         1        42        24       -4.868185
         1        43        24       -4.868185
         1        49        24      -2.4345472
         1        50        24      -2.4345472
         1        71        24      -3.6540296
         1        72        24      -3.6540296
         1        75        24      -3.6543684
         1        76        24      -3.6543684
         1        77        24      -1.3587129
         1        78        24      -1.3587129
         1        80        24      -1.3588387
         1        81        24      -1.3588387
         1        82        24      -1.3589016
         1        83        24      -1.3589016
         1        21        25        -5.56171
         1        22        25        -5.56171
         1        23        25       -5.561971
         1        24        25       -5.561971
         1        25        25      -5.5622325
         1        26        25      -5.5622325
         1        31        25       -5.563016
         1        32        25       -5.563016
         1        33        25      -11.126554
         1        34        25      -5.5635376
         1        35        25      -5.5635376
         1        40        25      -2.4339783
         1        41        25      -2.4339783
         1        44        25       -4.868413
         1        49        25      -2.4345472
         1        50        25      -2.4345472
         1        51        25       -2.434661
         1        52        25       -2.434661
         1        55        25       -2.434888
         1        56        25       -2.434888
         1        69        25        -3.65386
         1        70        25        -3.65386
         1        71        25      -3.6540296
         1        72        25      -3.6540296
         1        75        25      -3.6543684
         1        76        25      -3.6543684
         1        79        25      -1.8117012
         1        80        25      -1.8117849
         1        81        25      -1.8117849
         1        21        26        -5.56171
         1        22        26        -5.56171
         1        23        26       -5.561971
         1        24        26       -5.561971
         1        25        26      -5.5622325
         1        26        26      -5.5622325
         1        31        26       -5.563016
         1        32        26       -5.563016
         1        33        26      -11.126554
         1        34        26      -5.5635376
         1        35        26      -5.5635376
         1        40        26      -2.4339783
         1        41        26      -2.4339783
         1        44        26       -4.868413
         1        49        26      -2.4345472
         1        50        26      -2.4345472
         1        51        26       -2.434661
         1        52        26       -2.434661
         1        55        26       -2.434888
         1        56        26       -2.434888
         1        69        26        -3.65386
         1        70        26        -3.65386
         1        71        26      -3.6540296
         1        72        26      -3.6540296
         1        75        26      -3.6543684
         1        76        26      -3.6543684
         1        79        26      -1.8117012
         1        80        26      -1.8117012
         1        81        26      -1.8117849
         1        20        27       -15.13702
         1        21        27      -11.717398
         1        22        27      -11.717398
         1        25        27      -5.5622325
         1        26        27      -5.5622325
         1        31        27       -5.563016
         1        32        27       -5.563016
         1        33        27      -11.126554
         1        34        27      -0.5563539
         1        35        27      -0.5563539
         1        36        27       -5.563798
         1        37        27       -5.563798
         1        40        27      -2.4339783
         1        41        27      -2.4339783
         1        45        27        -2.43432
         1        46        27        -2.43432
         1        51        27     -0.22001378
         1        52        27     -0.22001378
         1        55        27       -2.434888
         1        56        27       -2.434888
         1        66        27      -3.6535206
         1        67        27      -3.6535206
         1        68        27        -7.30738
         1        71        27      -3.6540296
         1        72        27      -3.6540296
         1        75        27      -3.6543684
         1        76        27      -3.6543684
         1        81        27      -2.7176774
         1        82        27      -1.3589016
         1        83        27      -1.3589016
         1        84        27       -2.717929
         1        85        27       -2.717929
         1        20        28       -15.13702
         1        21        28      -11.717398
         1        22        28      -11.717398
         1        25        28      -5.5622325
         1        26        28      -5.5622325
         1        31        28       -5.563016
         1        32        28       -5.563016
         1        33        28      -11.126554
         1        34        28      -0.5563539
         1        35        28      -0.5563539
         1        36        28       -5.563798
         1        37        28       -5.563798
         1        40        28      -2.4339783
         1        41        28      -2.4339783
         1        45        28        -2.43432
         1        46        28        -2.43432
         1        51        28     -0.22001378
         1        52        28     -0.22001378
         1        55        28       -2.434888
         1        56        28       -2.434888
         1        66        28      -3.6535206
         1        67        28      -3.6535206
         1        68        28        -7.30738
         1        71        28      -3.6540296
         1        72        28      -3.6540296
         1        75        28      -3.6543684
         1        76        28      -3.6543684
         1        81        28      -2.7176774
         1        82        28      -1.3589016
         1        83        28      -1.3589016
         1        84        28      -1.3589644
         1        85        28      -1.3589644
         1        86        28      -1.3590273
         1        87        28      -1.3590273
         1        20        29      -10.091347
         1        21        29       -7.415613
         1        22        29       -7.415613
         1        29        29     -0.47691664
         1        30        29     -0.47691664
         1        31        29       -5.563016
         1        32        29       -5.563016
         1        33        29      -1.1126556
         1        40        29      -2.4339783
         1        41        29      -2.4339783
         1        42        29      -2.4340925
         1        43        29      -2.4340925
         1        44        29       -4.868413
         1        45        29        -2.43432
         1        46        29        -2.43432
         1        47        29      -2.4344337
         1        48        29      -2.4344337
         1        51        29     -0.42867273
         1        52        29     -0.42867273
         1        55        29      -0.4632262
         1        56        29      -0.4632262
         1        66        29       -7.307041
         1        67        29       -7.307041
         1        68        29       -14.61476
         1        77        29      -2.7174258
         1        78        29      -2.7174258
         1        79        29      -2.7175517
         1        80        29      -2.7175517
         1        81        29      -5.4353547
         1        82        29      -2.7178032
         1        83        29      -2.7178032
         1        84        29      -1.3589644
         1        85        29      -1.3589644
         1        86        29      -1.3590273
         1        87        29      -1.3590273
         1        20        30      -10.091347
         1        21        30      -10.091347
         1        22        30       -7.415613
         1        29        30     -0.47691664
         1        30        30     -0.47691664
         1        31        30       -5.563016
         1        32        30       -5.563016
         1        33        30      -1.1126556
         1        40        30      -2.4339783
         1        41        30      -2.4339783
         1        42        30      -2.4340925
         1        43        30      -2.4340925
         1        44        30       -4.868413
         1        45        30        -2.43432
         1        46        30        -2.43432
         1        47        30      -2.4344337
         1        48        30      -2.4344337
         1        53        30     -0.04317213
         1        54        30     -0.04317213
         1        66        30      -4.4606285
         1        67        30      -4.4606285
         1        68        30       -8.921671
         1        69        30       -4.461043
         1        70        30       -4.461043
         1        75        30      -4.4616637
         1        76        30      -4.4616637
         1        77        30       -3.630896
         1        78        30       -3.630896
         1        79        30      -3.6310642
         1        80        30      -3.6310642
         1        81        30       -7.262464
         1        82        30      -3.6314003
         1        83        30      -3.6314003
         1        86        30       -3.631736
         1        87        30       -3.631736
         1        20        31      -18.218765
         1        21        31      -18.218765
         1        27        31       -20.83494
         1        28        31       -20.83494
         1        31        31      -1.3848643
         1        32        31      -1.3848643
         1        33        31       -27.69858
         1        38        31      -13.851236
         1        39        31      -13.851236
         1        40        31      -5.5304704
         1        41        31      -5.5304704
         1        42        31      -5.5307293
         1        43        31      -5.5307293
         1        44        31      -11.061977
         1        45        31      -5.5312467
         1        46        31      -5.5312467
         1        47        31       -5.531505
         1        48        31       -5.531505
         1        49        31      -5.5317626
         1        50        31      -5.5317626
         1        53        31     -0.04317213
         1        54        31     -0.04317213
         1        66        31      -4.4606285
         1        67        31      -4.4606285
         1        68        31       -8.921671
         1        69        31       -4.461043
         1        70        31       -4.461043
         1        75        31      -4.4616637
         1        76        31      -4.4616637
         1        77        31       -3.630896
         1        78        31       -3.630896
         1        79        31      -3.6310642
         1        80        31      -3.6310642
         1        81        31       -7.262464
         1        82        31      -3.6314003
         1        83        31      -3.6314003
         1        86        31       -3.631736
         1        87        31       -3.631736
         1        22        32      -13.845389
         1        23        32        -6.92302
         1        24        32        -6.92302
         1        25        32       -6.923345
         1        26        32       -6.923345
         1        31        32        -0.65866
         1        32        32        -0.65866
         1        33        32       -13.84929
         1        36        32       -6.925294
         1        37        32       -6.925294
         1        38        32       -6.925618
         1        39        32       -6.925618
         1        40        32      -2.7652352
         1        41        32      -2.7652352
         1        42        32     -0.13694058
         1        43        32     -0.13694058
         1        44        32     -0.35074836
         1        45        32      -3.6874976
         1        46        32      -3.6874976
         1        47        32      -2.7657526
         1        48        32      -2.7657526
         1        49        32      -2.7658813
         1        50        32      -2.7658813
         1        55        32     -0.26313493
         1        56        32     -0.26313493
         1        57        32      -5.5327954
         1        66        32      -4.4606285