# WEL package for  MODFLOW-NWT, generated by Flopy.
     10321         0 
SPECIFY        0.1         50
     10321         0 # stress period 1
         1        29         2        -2.11582
         1        30         2        -2.11582
         1        31         2      -4.2318377
         1        29         3        -2.11582
         1        30         3        -2.11582
         1        31         3      -4.2318377
         1        29         4        -2.11582
         1        30         4        -2.11582
         1        32         4     -0.21160182
         1        33         4     -0.21160182
         1        34         4      -2.1161175
         1        35         4      -2.1161175
         1        43         4      -2.6022005
         1        44         4      -2.6022005
         1        45         4       -65.78181
         1        46         4       -65.78181
         1        29         5        -2.11582
         1        30         5        -2.11582
         1        32         5     -0.21160182
         1        33         5     -0.21160182
         1        34         5      -2.1161175
         1        35         5      -2.1161175
         1        43         5      -2.6022005
         1        44         5      -2.6022005
         1        45         5       -65.78181
         1        46         5       -65.78181
         1        29         6        -2.11582
         1        30         6        -2.11582
         1        32         6      -2.1160183
         1        33         6      -2.1160183
         1        34         6      -2.1161175
         1        35         6      -2.1161175
         1        36         6     -0.21162166
         1        37         6     -0.21162166
         1        40         6      -2.6019568
         1        41         6      -2.6019568
         1        42         6      -5.2041574
         1        45         6      -0.2602322
         1        46         6      -0.2602322
         1        29         7        -2.11582
         1        30         7        -2.11582
         1        32         7      -2.1160183
         1        33         7      -2.1160183
         1        34         7      -2.1161175
         1        35         7      -2.1161175
         1        36         7     -0.21162166
         1        37         7     -0.21162166
         1        40         7      -2.6019568
         1        41         7      -2.6019568
         1        42         7      -5.2041574
         1        45         7      -0.2602322
         1        46         7      -0.2602322
         1        27         8      -2.1157205
         1        28         8      -2.1157205
         1        29         8        -2.11582
         1        30         8        -2.11582
         1        32         8      -4.2320366
         1        33         8      -4.2320366
         1        34         8       -4.232235
         1        35         8       -4.232235
         1        36         8      -4.2324333
         1        37         8      -4.2324333
         1        40         8     -0.48826846
         1        41         8     -0.48826846
         1        42         8      -10.408315
         1        43         8      -0.5204401
         1        44         8      -0.5204401
         1        27         9      -2.1157205
         1        28         9      -2.1157205
         1        29         9        -2.11582
         1        30         9        -2.11582
         1        32         9      -2.1160183
         1        33         9      -2.1160183
         1        34         9      -2.1161175
         1        35         9      -2.1161175
         1        36         9     -0.21162166
         1        37         9     -0.21162166
         1        38         9      -2.1163156
         1        39         9      -2.1163156
         1        42         9      -5.2041574
         1        43         9      -2.6022005
         1        44         9      -2.6022005
         1        25        10       -4.231242
         1        26        10       -4.231242
         1        32        10      -2.1160183
         1        33        10      -2.1160183
         1        34        10      -2.1161175
         1        35        10      -2.1161175
         1        36        10     -0.21162166
         1        37        10     -0.21162166
         1        38        10      -2.1163156
         1        39        10      -2.1163156
         1        42        10      -5.2041574
         1        43        10      -2.6022005
         1        44        10      -2.6022005
         1        25        11       -2.115621
         1        26        11       -2.115621
         1        27        11      -2.1157205
         1        28        11      -2.1157205
         1        32        11     -0.21160182
         1        33        11     -0.21160182
         1        34        11      -2.1161175
         1        35        11      -2.1161175
         1        43        11     -0.28699166
         1        44        11     -0.28699166
         1        45        11       -2.602322
         1        46        11       -2.602322
         1        25        12       -2.115621
         1        26        12       -2.115621
         1        27        12      -2.1157205
         1        28        12      -2.1157205
         1        32        12     -0.21160182
         1        33        12     -0.21160182
         1        34        12      -2.1161175
         1        35        12      -2.1161175
         1        44        12     -0.28699166
         1        45        12       -2.602322
         1        46        12       -2.602322
         1        23        13      -5.7099457
         1        24        13      -5.7099457
         1        25        13      -0.5710214
         1        26        13      -0.5710214
         1        27        13      -5.7104826
         1        28        13      -5.7104826
         1        31        13      -0.9306844
         1        32        13      -5.7112856
         1        33        13      -5.7112856
         1        34        13      -5.7115536
         1        35        13      -5.7115536
         1        38        13      -5.7120886
         1        39        13      -5.7120886
         1        40        13      -2.5436902
         1        41        13      -2.5436902
         1        42        13      -0.2418189
         1        43        13      -0.2418189
         1        47        13      -2.5441658
         1        48        13      -2.5441658
         1        23        14      -5.7099457
         1        24        14      -5.7099457
         1        25        14      -0.5710214
         1        26        14      -0.5710214
         1        27        14      -5.7104826
         1        28        14      -5.7104826
         1        31        14      -0.9306844
         1        32        14      -5.7112856
         1        33        14      -5.7112856
         1        34        14      -5.7115536
         1        35        14      -5.7115536
         1        38        14      -5.7120886
         1        39        14      -5.7120886
         1        40        14      -2.5436902
         1        41        14      -2.5436902
         1        42        14      -0.2418189
         1        43        14      -0.2418189
         1        47        14      -2.5441658
         1        48        14      -2.5441658
         1        21        15       -5.709677
         1        22        15       -5.709677
         1        27        15      -5.7104826
         1        28        15      -5.7104826
         1        31        15      -11.422036
         1        32        15      -5.7112856
         1        33        15      -5.7112856
         1        34        15      -5.7115536
         1        35        15      -5.7115536
         1        36        15     -0.57118213
         1        37        15     -0.57118213
         1        40        15     -0.50873804
         1        41        15     -0.50873804
         1        42        15      -5.0876184
         1        43        15      -5.0876184
         1        44        15      -10.175714
         1        47        15      -5.0883317
         1        48        15      -5.0883317
         1        51        15      -5.0888066
         1        52        15      -5.0888066
         1        21        16       -5.709677
         1        22        16       -5.709677
         1        27        16      -5.7104826
         1        28        16      -5.7104826
         1        31        16      -11.422036
         1        32        16      -5.7112856
         1        33        16      -5.7112856
         1        34        16      -5.7115536
         1        35        16      -5.7115536
         1        36        16     -0.57118213
         1        37        16     -0.57118213
         1        38        16      -5.7120886
         1        39        16      -5.7120886
         1        44        16     -0.50878567
         1        47        16      -2.5441658
         1        48        16      -2.5441658
         1        51        16     -0.24501662
         1        52        16     -0.24501662
         1        21        17      -11.419354
         1        22        17      -11.419354
         1        23        17      -11.419891
         1        24        17      -11.419891
         1        27        17      -11.420965
         1        28        17      -11.420965
         1        34        17      -1.1423107
         1        35        17      -1.1423107
         1        36        17      -11.423642
         1        37        17      -11.423642
         1        38        17      -5.7120886
         1        39        17      -5.7120886
         1        44        17     -0.50878567
         1        47        17      -2.5441658
         1        48        17      -2.5441658
         1        51        17     -0.24501662
         1        52        17     -0.24501662
         1        21        18     -0.57096773
         1        22        18     -0.57096773
         1        31        18      -11.422036
         1        32        18     -0.57112855
         1        33        18     -0.57112855
         1        34        18      -5.7115536
         1        35        18      -5.7115536
         1        36        18       -5.711821
         1        37        18       -5.711821
         1        38        18      -5.7120886
         1        39        18      -5.7120886
         1        42        18      -2.5438092
         1        43        18      -2.5438092
         1        47        18      -2.5441658
         1        48        18      -2.5441658
         1        21        19     -0.57096773
         1        22        19     -0.57096773
         1        31        19      -11.422036
         1        32        19     -0.57112855
         1        33        19     -0.57112855
         1        34        19      -5.7115536
         1        35        19      -5.7115536
         1        36        19       -5.711821
         1        37        19       -5.711821
         1        38        19      -5.7120886
         1        39        19      -5.7120886
         1        42        19      -2.5438092
         1        43        19      -2.5438092
         1        47        19      -2.5441658
         1        48        19      -2.5441658
         1        21        20     -0.57096773
         1        22        20     -0.57096773
         1        23        20      -218.63196
         1        24        20      -218.63196
         1        29        20     -0.15510681
         1        30        20     -0.15510681
         1        31        20      -7.6146903
         1        32        20      -7.6150475
         1        33        20      -7.6150475
         1        34        20      -5.7115536
         1        35        20      -5.7115536
         1        36        20       -5.711821
         1        37        20       -5.711821
         1        38        20      -5.7120886
         1        39        20      -5.7120886
         1        40        20      -2.5436902
         1        41        20      -2.5436902
         1        47        20      -2.5441658
         1        48        20      -2.5441658
         1        49        20      -2.5442843
         1        50        20      -2.5442843
         1        53        20      -2.5445218
         1        54        20      -2.5445218
         1        73        20       -3.759464
         1        74        20       -3.759464
         1        21        21     -0.57096773
         1        22        21     -0.57096773
         1        23        21      -218.63196
         1        24        21      -218.63196
         1        29        21     -0.15510681
         1        30        21     -0.15510681
         1        31        21      -7.6146903
         1        32        21      -7.6146903
         1        33        21      -7.6150475
         1        34        21      -5.7115536
         1        35        21      -5.7115536
         1        36        21       -5.711821
         1        37        21       -5.711821
         1        38        21      -5.7120886
         1        39        21      -5.7120886
         1        40        21      -2.5436902
         1        41        21      -2.5436902
         1        47        21      -2.5441658
         1        48        21      -2.5441658
         1        49        21      -2.5442843
         1        50        21      -2.5442843
         1        53        21      -2.5445218
         1        54        21      -2.5445218
         1        73        21       -3.759464
         1        74        21       -3.759464
         1        76        21     -0.50128514
         1        77        21      -16.839346
         1        78        21      -16.839346
         1        79        21     -103.375626
         1        21        22       -9.963917
         1        22        22       -9.963917
         1        29        22     -0.33136454
         1        30        22     -0.33136454
         1        33        22      -11.422571
         1        34        22     -0.57115537
         1        35        22     -0.57115537
         1        38        22      -5.7120886
         1        39        22      -5.7120886
         1        40        22      -2.5436902
         1        41        22      -2.5436902
         1        44        22      -10.175714
         1        47        22      -5.0883317
         1        48        22      -5.0883317
         1        49        22      -5.0885687
         1        50        22      -5.0885687
         1        53        22      -0.5089044
         1        54        22      -0.5089044
         1        71        22      -7.5185795
         1        72        22      -7.5185795
         1        75        22     -0.50128514
         1        76        22     -0.50128514
         1        77        22      -16.839346
         1        78        22      -16.839346
         1        79        22     -103.375626
         1        21        23       -9.963917
         1        22        23       -9.963917
         1        29        23     -0.33136454
         1        30        23     -0.33136454
         1        33        23      -11.422571
         1        34        23     -0.57115537
         1        35        23     -0.57115537
         1        38        23      -5.7120886
         1        39        23      -5.7120886
         1        40        23      -2.5436902
         1        41        23      -2.5436902
         1        49        23      -2.5442843
         1        50        23      -2.5442843
         1        71        23      -3.7592897
         1        72        23      -3.7592897
         1        75        23      -3.7596383
         1        76        23      -3.7596383
         1        77        23      -1.6883559
         1        78        23      -1.6883559
         1        80        23       -4.276687
         1        81        23       -4.276687
         1        82        23      -1.6885904
         1        83        23      -1.6885904
         1        21        24      -11.419354
         1        22        24      -11.419354
         1        23        24      -11.419891
         1        24        24      -11.419891
         1        25        24      -11.420427
         1        26        24      -11.420427
         1        31        24       -3831.813
         1        32        24       -3831.813
         1        33        24      -22.845142
         1        34        24      -11.423107
         1        35        24      -11.423107
         1        38        24      -11.424177
         1        39        24      -11.424177
         1        40        24      -5.0873804
         1        41        24      -5.0873804
         1        42        24      -5.0876184
         1        43        24      -5.0876184
         1        49        24      -2.5442843
         1        50        24      -2.5442843
         1        71        24      -3.7592897
         1        72        24      -3.7592897
         1        75        24      -3.7596383
         1        76        24      -3.7596383
         1        77        24      -1.6883559
         1        78        24      -1.6883559
         1        80        24       -4.276687
         1        81        24       -4.276687
         1        82        24      -1.6885904
         1        83        24      -1.6885904
         1        21        25       -5.709677
         1        22        25       -5.709677
         1        23        25      -5.7099457
         1        24        25      -5.7099457
         1        25        25      -5.7102137
         1        26        25      -5.7102137
         1        31        25      -478.67395
         1        32        25      -478.67395
         1        33        25      -11.422571
         1        34        25      -328.38385
         1        35        25      -328.38385
         1        40        25      -2.5436902
         1        41        25      -2.5436902
         1        44        25       -5.087857
         1        49        25     -0.24814627
         1        50        25     -0.24814627
         1        51        25      -2.5444033
         1        52        25      -2.5444033
         1        55        25      -2.5446405
         1        56        25      -2.5446405
         1        69        25      -3.7591155
         1        70        25      -3.7591155
         1        71        25     -0.36200568
         1        72        25     -0.36200568
         1        75        25       -71.03171
         1        76        25       -71.03171
         1        79        25       -46.01264
         1        80        25      -296.26834
         1        81        25      -296.26834
         1        21        26       -5.709677
         1        22        26       -5.709677
         1        23        26      -5.7099457
         1        24        26      -5.7099457
         1        25        26      -5.7102137
         1        26        26      -5.7102137
         1        31        26      -478.67395
         1        32        26      -478.67395
         1        33        26      -11.422571
         1        34        26      -328.38385
         1        35        26      -328.38385
         1        40        26      -2.5436902
         1        41        26      -2.5436902
         1        44        26       -5.087857
         1        49        26     -0.24814627
         1        50        26     -0.24814627
         1        51        26      -2.5444033
         1        52        26      -2.5444033
         1        55        26      -2.5446405
         1        56        26      -2.5446405
         1        69        26      -3.7591155
         1        70        26      -3.7591155
         1        71        26     -0.36200568
         1        72        26     -0.36200568
         1        75        26       -71.03171
         1        76        26       -71.03171
         1        79        26       -46.01264
         1        80        26       -46.01264
         1        81        26      -296.26834
         1        20        27      -15.381959
         1        25        27      -274.37823
         1        26        27      -274.37823
         1        31        27       -5.711018
         1        32        27       -5.711018
         1        33        27      -1.1422571
         1        34        27      -48.538017
         1        35        27      -48.538017
         1        36        27     -0.57118213
         1        37        27     -0.57118213
         1        40        27      -2.5436902
         1        41        27      -2.5436902
         1        45        27      -142.91927
         1        46        27      -142.91927
         1        51        27     -0.24187538
         1        52        27     -0.24187538
         1        55        27      -2.5446405
         1        56        27      -2.5446405
         1        66        27      -3.7587662
         1        67        27      -3.7587662
         1        68        27      -7.5178814
         1        71        27      -3.7592897
         1        72        27      -3.7592897
         1        75        27      -3.7596383
         1        76        27      -3.7596383
         1        81        27      -172.60185
         1        82        27      -1.6885904
         1        83        27      -1.6885904
         1        84        27       -3.377337
         1        85        27       -3.377337
         1        20        28      -15.381959
         1        25        28      -274.37823
         1        26        28      -274.37823
         1        31        28       -5.711018
         1        32        28       -5.711018
         1        33        28      -1.1422571
         1        34        28      -48.538017
         1        35        28      -48.538017
         1        36        28     -0.57118213
         1        37        28     -0.57118213
         1        40        28      -2.5436902
         1        41        28      -2.5436902
         1        45        28      -142.91927
         1        46        28      -142.91927
         1        51        28     -0.24187538
         1        52        28     -0.24187538
         1        55        28      -2.5446405
         1        56        28      -2.5446405
         1        66        28      -3.7587662
         1        67        28      -3.7587662
         1        68        28      -7.5178814
         1        71        28      -3.7592897
         1        72        28      -3.7592897
         1        75        28      -3.7596383
         1        76        28      -3.7596383
         1        81        28      -172.60185
         1        82        28      -1.6885904
         1        83        28      -1.6885904
         1        84        28      -1.6886685
         1        85        28      -1.6886685
         1        86        28      -1.6887466
         1        87        28      -1.6887466
         1        20        29       -10.25464
         1        21        29      -0.7612903
         1        22        29      -0.7612903
         1        29        29      -3332.1013
         1        30        29      -3332.1013
         1        31        29      -174.07307
         1        32        29      -174.07307
         1        33        29      -1.1422571
         1        40        29      -2.5436902
         1        41        29      -2.5436902
         1        42        29      -2.5438092
         1        43        29      -2.5438092
         1        44        29       -5.087857
         1        45        29       -2.544047
         1        46        29       -2.544047
         1        47        29      -2.5441658
         1        48        29      -2.5441658
         1        51        29     -0.47746828
         1        52        29     -0.47746828
         1        55        29       -0.496362
         1        56        29       -0.496362
         1        66        29      -0.7517532
         1        67        29      -0.7517532
         1        77        29      -3.3767118
         1        78        29      -3.3767118
         1        79        29      -3.3768682
         1        80        29      -3.3768682
         1        81        29       -6.754049
         1        82        29      -3.3771808
         1        83        29      -3.3771808
         1        84        29      -1.6886685
         1        85        29      -1.6886685
         1        86        29      -1.6887466
         1        87        29      -1.6887466
         1        20        30       -10.25464
         1        21        30       -10.25464
         1        22        30      -0.7612903
         1        29        30      -3332.1013
         1        30        30      -3332.1013
         1        31        30      -174.07307
         1        32        30      -174.07307
         1        33        30      -1.1422571
         1        40        30      -2.5436902
         1        41        30      -2.5436902
         1        42        30      -2.5438092
         1        43        30      -2.5438092
         1        44        30       -5.087857
         1        45        30       -2.544047
         1        46        30       -2.544047
         1        47        30      -2.5441658
         1        48        30      -2.5441658
         1        53        30      -0.1135675
         1        54        30      -0.1135675
         1        66        30     -0.46060356
         1        67        30     -0.46060356
         1        68        30       -9.212499
         1        69        30      -4.6064634
         1        70        30      -4.6064634
         1        75        30      -4.6071043
         1        76        30      -4.6071043
         1        77        30      -3.7612195
         1        78        30      -3.7612195
         1        79        30      -3.7613938
         1        80        30      -3.7613938
         1        81        30      -7.5231357
         1        82        30      -3.7617419
         1        83        30      -3.7617419
         1        86        30      -3.7620897
         1        87        30      -3.7620897
         1        20        31      -18.439022
         1        21        31      -18.439022
         1        31        31      -14.288687
         1        32        31      -14.288687
         1        33        31      -28.578714
         1        38        31      -14.291366
         1        39        31      -14.291366
         1        40        31      -5.7474756
         1        41        31      -5.7474756
         1        42        31      -5.7477446
         1        43        31      -5.7477446
         1        44        31      -11.496027
         1        45        31       -5.748282
         1        46        31       -5.748282
         1        47        31      -0.5180792
         1        48        31      -0.5180792
         1        49        31      -5.7488184
         1        50        31      -5.7488184
         1        53        31      -0.1135675
         1        54        31      -0.1135675
         1        66        31     -0.46060356
         1        67        31     -0.46060356
         1        68        31       -9.212499
         1        69        31      -4.6064634
         1        70        31      -4.6064634
         1        75        31      -4.6071043
         1        76        31      -4.6071043
         1        77        31      -3.7612195
         1        78        31      -3.7612195
         1        79        31      -3.7613938
         1        80        31      -3.7613938
         1        81        31      -7.5231357
         1        82        31      -3.7617419
         1        83        31      -3.7617419
         1        86        31      -3.7620897
         1        87        31      -3.7620897
         1        22        32      -14.285333
         1        23        32      -0.7143002
         1        24        32      -0.7143002
         1        25        32       -27.09351
         1        26        32       -27.09351
         1        31        32      -7.1443434
         1        32        32      -7.1443434
         1        33        32      -14.289357
         1        36        32       -7.145348
         1        37        32       -7.145348
         1        38        32       -7.145683
         1        39        32       -7.145683
         1        40        32      -2.8737378
         1        41        32      -2.8737378
         1        42        32     -0.20223546
         1        43        32     -0.20223546
         1        45        32       -3.832188
         1        46        32       -3.832188
         1        47        32      -2.8742752
         1        48        32      -2.8742752
         1        49        32      -2.8744092
         1        50        32      -2.8744092
         1        55        32     -0.28038284
         1        56        32     -0.28038284
         1        57        32     -0.57498914
         1        66        32      -4.6060357
         1        67        32      -4.6060357
         1        68        32       -9.212499
         1        75        32      -4.6071043
         1        76        32      -4.6071043
         1        77        32      -3.7612195
         1        78        32      -3.7612195
         1        81        32     -0.75231355
         1        86        32      -3.7620897
         1        87        32      -3.7620897
         1        22        33      -14.285333
         1        23        33      -0.7143002
         1        24        33      -0.7143002