# WEL package for  MODFLOW-NWT, generated by Flopy.
     10012         0 
     10012         0 # stress period 1
         1         2       149      -318.42355
         1         3       105         -534.62
         1         3       106         -534.62
         1         4       136      -3127.8047
         1         4       140      -7038.3535
         1         4       142      -5826.7246
         1         4       143       -7985.652
         1         4       145       -8949.891
         1         4       147       -4285.633
         1         4       149      -2124.9382
         1         4       150      -232.32874
         1         4       152      -232.32874
         1         4       154      -180.42982
         1         4       156      -106871.71
         1         5       103      -534.64526
         1         5       105      -8146.1753
         1         5       106      -534.64526
         1         5       108      -534.64526
         1         5       117      -3053.2048
         1         5       119       -228.8374
         1         5       121       -85748.43
         1         5       122      -2600.0789
         1         5       124       -228.8374
         1         5       126      -1693.6633
         1         5       128       -228.8374
         1         5       129       -228.8374
         1         5       131       -228.8374
         1         5       133       -228.8374
         1         5       135      -120097.33
         1         5       136       -232.3397
         1         5       138       -9605.166
         1         5       140       -5448.306
         1         5       142        -5637.99
         1         5       143        -6113.63
         1         6       145      -13161.042
         1         6       147       -8420.964
         1         6       149      -2840.2886
         1         6       150        -6760.29
         1         6       152      -5820.0513
         1         6       154      -2501.7275
         1         6       156      -3658.5356
         1         7        78      -50087.164
         1         7        80      -5561.4893
         1         7        82       -5562.105
         1         7        84      -32141.982
         1         7        85      -26359.273
         1         7        87       -6779.531
         1         7        89      -4227.7725
         1         7        91       -91508.85
         1         7        92      -5273.3477
         1         7        94      -5983.7954
         1         7        96      -296.51776
         1         7        98       -8777.704
         1         7        99      -5000.3784
         1         7       101      -5893.7544
         1         7       103      -3470.0144
         1         7       105      -6404.5845
         1         7       106      -1720.5432
         1         7       108       -534.6705
         1         7       110      -2583.8875
         1         7       112       -534.6705
         1         7       113       -534.6705
         1         7       115       -534.6705
         1         7       117       -534.6705
         1         7       119      -6294.9033
         1         7       120       -228.8482
         1         7       122       -228.8482
         1         7       124      -3509.5254
         1         7       126       -228.8482
         1         7       128      -6255.0005
         1         7       129      -6914.3384
         1         7       131       -228.8482
         1         7       133       -8519.225
         1         7       135      -119230.29
         1         7       136       -232.3507
         1         7       138      -10783.738
         1         7       140       -8562.214
         1         7       142       -5082.784
         1         7       143       -232.3507
         1         7       145       -13184.08
         1         7       147       -9378.671
         1         7       149       -232.3507
         1         7       150       -232.3507
         1         7       152      -7611.7866
         1         7       154       -5970.485
         1         7       156      -180.44688
         1         7       157       -4444.251
         1         9        66       -330.1226
         1         9        68       -330.1226
         1         9        69       -8653.189
         1         9        71      -5502.6567
         1         9        73       -330.1226
         1         9        75       -330.1226
         1         9        76       -330.1226
         1         9        78       -4382.129
         1         9        80      -6210.5273
         1         9        82        -7871.88
         1         9        84      -296.53174
         1         9        85      -296.53174
         1         9        87       -36936.06
         1         9        89      -296.53174
         1         9        91        -97065.4
         1         9        92      -296.53174
         1         9        94       -6460.084
         1         9        96       -8749.735
         1         9        98      -5481.8687
         1         9        99       -6443.412
         1         9       101      -534.69574
         1         9       103        -6268.74
         1         9       105       -7865.205
         1         9       106      -6442.5093
         1         9       108      -85151.375
         1         9       110      -534.69574
         1         9       112      -2275.0657
         1         9       113      -534.69574
         1         9       115      -534.69574
         1         9       117      -534.69574
         1         9       119      -228.85901
         1         9       120      -1651.4807
         1         9       122      -228.85901
         1         9       124      -228.85901
         1         9       126      -228.85901
         1         9       128      -228.85901
         1         9       129      -228.85901
         1         9       131      -7667.0254
         1         9       133      -2707.3328
         1         9       135      -228.85901
         1         9       136       -5787.188
         1         9       138      -7180.7334
         1         9       140      -16671.373
         1         9       142      -7015.4517
         1         9       143      -6551.9956
         1         9       145      -232.36165
         1         9       147      -11783.129
         1         9       149      -7458.7363
         1         9       150       -9770.462
         1         9       152      -232.36165
         1         9       154       -180.4554
         1         9       156      -7149.0923
         1         9       157      -3657.2559
         1         9       159      -3738.8809
         1        11        61      -6732.4346
         1        11        62       -5956.406
         1        11        64      -283.67776
         1        11        66      -49386.508
         1        11        68       -8334.481
         1        11        69        -5016.98
         1        11        71       -5539.376
         1        11        73      -330.13818
         1        11        75      -6114.0254
         1        11        76      -6312.4214
         1        11        78       -6943.573
         1        11        80      -330.13818
         1        11        82      -330.13818
         1        11        83      -88713.734
         1        11        85      -115444.44
         1        11        87     -100679.695
         1        11        89       -70719.26
         1        11        91       -91821.69
         1        11        92       -99912.67
         1        11        94      -296.54575
         1        11        96      -7351.5205
         1        11        98       -8204.053
         1        11        99      -3890.8826
         1        11       101      -534.72095
         1        11       103      -534.72095
         1        11       105      -534.72095
         1        11       106      -534.72095
         1        11       108      -534.72095
         1        11       110      -534.72095
         1        11       112       -4325.254
         1        11       113      -534.72095
         1        11       115       -6430.501
         1        11       117      -534.72095
         1        11       119       -228.8698
         1        11       120       -228.8698
         1        11       122       -2764.935
         1        11       124       -228.8698
         1        11       126       -228.8698
         1        11       128       -4387.104
         1        11       129       -228.8698
         1        11       131       -228.8698
         1        11       133       -228.8698
         1        11       135       -9736.512
         1        11       136        -9250.37
         1        11       138       -7061.613
         1        11       140      -11434.629
         1        11       142      -6240.1904
         1        11       143       -5690.736
         1        11       145       -6537.403
         1        11       147      -13857.095
         1        11       149       -9278.156
         1        11       150       -5811.359
         1        11       152      -6864.9263
         1        11       154       -4410.147
         1        11       156       -180.4639
         1        11       157       -4884.734
         1        11       159      -1551.0394
         1        11       161       -2811.419
         1        11       163      -5094.4404
         1        11       164       -180.4639
         1        12        59      -7836.7466
         1        12        61      -283.69113
         1        12        62      -283.69113
         1        12        64      -5232.8516
         1        12        66       -5405.324
         1        12        68        -5964.54
         1        12        69      -7404.5635
         1        12        71      -6457.9756
         1        12        73      -7541.2046
         1        13        75      -330.15375
         1        13        76      -6115.5874
         1        13        78      -10554.976
         1        13        80      -330.15375
         1        13        82      -330.15375
         1        13        83      -11122.409
         1        13        85      -296.55972
         1        13        87      -112116.13
         1        13        89      -119728.08
         1        13        91      -119772.19
         1        13        92      -296.55972
         1        13        94       -8598.333
         1        13        96         -6774.5
         1        13        98      -6132.9316
         1        13        99       -7754.769
         1        13       101      -534.74615
         1        13       103      -534.74615
         1        13       105      -534.74615
         1        13       106       -90675.74
         1        13       108       -8313.786
         1        13       110       -8846.604
         1        13       112      -534.74615
         1        13       113      -5282.6724
         1        13       115       -4670.405
         1        13       117      -534.74615
         1        13       119       -228.8806
         1        13       120       -228.8806
         1        13       122       -228.8806
         1        13       124       -228.8806
         1        13       126      -127493.09
         1        13       128       -228.8806
         1        13       129      -2151.3215
         1        13       131       -228.8806
         1        13       133       -228.8806
         1        13       135       -228.8806
         1        13       136       -6841.013
         1        13       138      -7160.2227
         1        13       140       -7739.833
         1        13       142      -5176.9097
         1        13       143       -5346.134
         1        13       145      -3826.7363
         1        13       147       -8473.083
         1        13       149      -6510.2397
         1        13       150       -7829.694
         1        13       152      -232.38358
         1        13       154      -180.47241
         1        13       156      -180.47241
         1        13       157      -6958.1206
         1        13       159      -180.47241
         1        13       161      -4632.4136
         1        13       163      -4805.5684
         1        13       164        -98579.2
         1        14        55       -283.7045
         1        14        57       -283.7045
         1        14        59      -6461.7925
         1        14        61       -283.7045
         1        14        62       -283.7045
         1        14        64       -5190.772
         1        14        66       -5927.398
         1        14        68        -8567.68
         1        14        69       -5726.175
         1        14        71       -9518.816
         1        14        73       -6258.979
         1        14        75      -330.16928
         1        14        76      -4631.6724
         1        14        78       -6088.239
         1        14        80      -330.16928
         1        14        82      -6681.9424
         1        14        83        -6826.91
         1        14        85       -296.5737
         1        14        87       -296.5737
         1        14        89       -296.5737
         1        14        91       -6571.008
         1        14        92       -4072.542
         1        14        94       -296.5737
         1        14        96      -7076.8438
         1        14        98       -296.5737
         1        14        99      -7236.2104
         1        15       101      -534.77136
         1        15       103      -534.77136
         1        15       105      -534.77136
         1        15       106      -534.77136
         1        15       108       -84283.65
         1        15       110      -534.77136
         1        15       112      -534.77136
         1        15       113      -8521.3125
         1        15       115       -8459.036
         1        15       117      -2699.3667
         1        15       119      -4261.5327
         1        15       120      -1959.5575
         1        15       122      -228.89137
         1        15       124       -6001.601
         1        15       126       -4832.937
         1        15       127      -228.89137
         1        15       129       -6572.136
         1        15       131       -2838.806
         1        15       133      -228.89137
         1        15       135      -7164.9194
         1        15       136      -5769.3696
         1        15       138       -9619.654
         1        15       140      -15574.605
         1        15       142      -14901.323
         1        15       143       -6258.209
         1        15       145       -7048.118
         1        15       147      -7108.1797
         1        15       149      -8077.0464
         1        15       150        -8218.64
         1        15       152      -232.39452
         1        15       154      -1179.1207
         1        15       156       -6876.403
         1        15       157      -180.48091
         1        15       159       -3897.546
         1        15       161       -5292.112
         1        15       163      -4077.9343
         1        15       164       -4038.885
         1        15       166      -5171.5938
         1        16        48      -283.71786
         1        16        50      -283.71786
         1        16        52      -283.71786
         1        16        54       -3107.052
         1        16        55      -283.71786
         1        16        57      -5828.0767
         1        16        59      -283.71786
         1        16        61      -5852.3916
         1        16        62       -5970.605
         1        16        64      -283.71786
         1        16        66        -5636.38
         1        16        68      -7415.9014
         1        16        69      -330.18488
         1        16        71      -330.18488
         1        16        73       -74414.08
         1        16        75       -16620.41
         1        16        76      -75025.984
         1        16        78       -7658.884
         1        16        80        -6550.25
         1        16        82       -5580.153
         1        16        83       -90131.14
         1        16        85        -9281.36
         1        16        87      -31390.928
         1        16        89      -296.58768
         1        16        91      -296.58768
         1        16        92      -296.58768
         1        16        94        -9389.71
         1        16        96       -5359.264
         1        16        98        -5453.76
         1        16        99      -296.58768
         1        16       101       -534.7966
         1        16       103      -6273.0195
         1        16       105       -534.7966
         1        16       106       -534.7966
         1        16       108       -115197.3
         1        16       110       -534.7966
         1        16       112       -534.7966
         1        16       113       -534.7966
         1        16       115       -534.7966
         1        16       117       -534.7966
         1        16       119      -228.90218
         1        16       120      -6683.8735
         1        16       122      -228.90218
         1        16       124      -11283.426
         1        16       126      -228.90218
         1        16       127       -4577.424
         1        16       129      -228.90218
         1        17       131      -3894.8079
         1        17       133      -4341.8857
         1        17       135      -2734.5396
         1        17       136       -8132.756
         1        17       138      -10592.787
         1        17       140       -8483.942
         1        17       142      -232.40547
         1        17       143       -9017.459
         1        17       145      -10586.865
         1        17       147      -6007.1274
         1        17       149       -5786.868
         1        17       150      -2272.7336
         1        17       152      -232.40547
         1        17       154      -180.48943
         1        17       156       -4224.891
         1        17       157      -180.48943
         1        17       159      -3643.8901
         1        17       161      -180.48943
         1        17       163      -5141.9854
         1        17       164       -8140.453
         1        17       166      -3211.3052
         1        17       168      -180.48943
         1        17       170       -6015.954
         1        17       172       -2577.209
         1        17       173       -233.6181
         1        17       175       -233.6181
         1        17       177       -233.6181
         1        17       187      -3834.5684
         1        17       189      -3593.9375
         1        18        48      -283.73123
         1        18        50       -6069.587
         1        18        52       -9271.959
         1        18        54       -8511.509
         1        18        55      -283.73123
         1        18        57      -283.73123
         1        18        59      -283.73123
         1        18        61      -283.73123
         1        18        62        -8440.36
         1        18        64      -283.73123
         1        18        66       -330.2004
         1        18        68       -7927.644
         1        18        69       -7994.816
         1        18        71       -330.2004
         1        18        73       -69496.84
         1        18        75      -32097.465
         1        18        76       -330.2004
         1        18        78      -39375.695
         1        18        80       -24450.03
         1        18        82       -330.2004
         1        18        83       -91668.05
         1        18        85      -296.60165
         1        18        87     -101650.305
         1        18        89      -296.60165
         1        18        90       -3234.518
         1        18        92       -4159.676
         1        18        94      -296.60165
         1        18        96       -7152.749
         1        18        98      -296.60165
         1        18        99      -296.60165
         1        18       101       -97054.25
         1        18       103       -7217.209
         1        18       105      -6786.4556
         1        18       106      -2694.9817
         1        18       108       -46356.07
         1        18       110       -534.8217
         1        18       112       -534.8217
         1        18       113      -6857.6167
         1        18       115       -5328.372
         1        18       117      -7883.5938
         1        18       119      -228.91295
         1        18       120      -10075.677
         1        18       122      -228.91295
         1        18       124      -10155.459
         1        18       126      -228.91295
         1        18       127      -4867.1978
         1        18       129      -228.91295
         1        18       131      -228.91295
         1        18       133      -4452.5073
         1        18       135       -7130.292
         1        18       136      -3179.5364
         1        18       138        -9710.81
         1        18       140       -9951.781
         1        18       142       -9872.771
         1        18       143      -5852.3506
         1        18       145      -120476.02
         1        18       147      -6681.4194
         1        18       149       -8829.937
         1        18       150      -4212.7344
         1        18       152       -4577.363
         1        18       154      -2187.4927
         1        18       156      -180.49792
         1        18       157      -3096.6504
         1        18       159      -7037.5884
         1        18       161      -4888.9194
         1        18       163       -5117.608
         1        18       164      -180.49792
         1        18       166      -4046.6936
         1        19       168      -1603.4133
         1        19       170      -2901.4153
         1        19       172       -6351.171
         1        19       173       -233.6291
         1        19       175       -371.0663
         1        19       177      -443.29324
         1        19       179       -98953.84
         1        19       180        -6387.13
         1        19       182       -2220.631
         1        19       184      -3981.6604
         1        19       186      -3850.1267
         1        19       187       -233.6291
         1        19       189       -7723.677
         1        19       191       -5279.428
         1        19       193      -5039.3516
         1        19       194      -3960.3442
         1        19       196       -1952.909
         1        20        27      -191.15668
         1        20        29      -191.15668
         1        20        31       -230.9155
         1        20        46       -230.9155
         1        20        48      -283.74457
         1        20        50      -283.74457
         1        20        52      -283.74457
         1        20        54      -283.74457
         1        20        55       -5948.625
         1        20        57      -7436.9746
         1        20        59      -283.74457
         1        20        61      -6508.1313
         1        20        62       -6743.534
         1        20        64      -283.74457
         1        20        66       -7270.586
         1        20        68      -6332.1064
         1        20        69       -8817.837
         1        20        71      -330.21594
         1        20        73       -85996.31
         1        20        75      -10378.716
         1        20        76      -330.21594
         1        20        78       -72724.04
         1        20        80       -77510.34
         1        20        82      -32977.504
         1        20        83      -296.61557
         1        20        85       -89750.42
         1        20        87      -296.61557
         1        20        89       -7080.138
         1        20        90      -5106.1084
         1        20        92       -8949.027
         1        20        94      -6418.7627
         1        20        96      -6227.3384
         1        20        98      -296.61557
         1        20        99      -6465.9077
         1        20       101      -534.84686
         1        20       103       -9415.592
         1        20       105      -534.84686
         1        20       106      -36220.508
         1        20       108      -38393.695
         1        20       110      -534.84686
         1        20       112      -7788.5205
         1        20       113      -534.84686
         1        20       115      -534.84686
         1        20       117      -6258.8096
         1        20       119       -228.9237
         1        20       120       -228.9237
         1        20       122       -228.9237
         1        20       124       -8337.607
         1        20       126       -228.9237
         1        20       127      -7342.4116
         1        20       129       -228.9237
         1        20       131      -3247.2324
         1        20       133       -228.9237
         1        20       135       -4503.345
         1        20       136      -2988.6357
         1        20       138       -11611.37
         1        20       140       -5798.779
         1        20       142       -6283.771
         1        20       143      -5961.4385
         1        20       145     -128817.414
         1        20       147       -6458.882
         1        20       149      -4517.8916
         1        20       150       -7985.152
         1        20       152      -6540.0254
         1        20       154      -180.50641
         1        20       156      -4232.4385
         1        20       157      -180.50641
         1        20       159      -5594.2695
         1        20       161      -180.50641
         1        20       163        -9675.71
         1        20       164      -4565.4556
         1        20       166      -180.50641
         1        20       168      -2315.7087
         1        20       170      -2049.7288
         1        20       172      -2520.7058
         1        20       173      -233.64008
         1        20       175      -233.64008
         1        20       177      -854.14777
         1        20       179       -1059.199
         1        20       180       -5937.504
         1        20       182       -2803.692
         1        20       184       -5602.265
         1        20       186      -4642.2393
         1        20       187      -6996.5474
         1        20       189       -4811.142
         1        20       191      -4648.9507
         1        20       193      -4749.5493
         1        20       194       -4622.401
         1        20       196      -5672.3193
         1        20       198      -236.58551
         1        21        15      -139.46974
         1        21        16      -139.46974
         1        21        18      -139.46974
         1        21        20      -139.46974
         1        21        22      -139.46974
         1        21        24      -139.46974
         1        21        25      -139.46974
         1        21        27      -139.46974
         1        21        29      -139.46974
         1        21        31      -175.28561
         1        21        32      -175.28561
         1        22        43      -175.28561
         1        22        45      -175.28561
         1        22        46      -175.28561
         1        22        48      -211.44029
         1        22        50      -211.44029
         1        22        52      -211.44029
         1        22        53      -211.44029
         1        22        55      -211.44029
         1        22        57      -211.44029
         1        22        59      -6772.3643
         1        22        61      -211.44029
         1        22        62      -6187.2227
         1        22        64      -7052.7183
         1        22        66       -6422.926
         1        22        68       -9200.085
         1        22        69       -7132.751
         1        22        71      -4985.0693
         1        22        73       -259.7186
         1        22        75       -259.7186
         1        22        76       -259.7186
         1        22        78       -259.7186
         1        22        80      -6098.2544
         1        22        82       -259.7186
         1        22        83       -4743.663
         1        22        85      -3250.6372
         1        22        87      -227.93614
         1        22        89      -7626.7754
         1        22        90      -227.93614
         1        22        92      -5246.4927
         1        22        94       -5595.219
         1        22        96       -9275.799
         1        22        98       -4861.178
         1        22        99      -5751.2764
         1        22       101       -5028.767
         1        22       103      -6119.8135
         1        22       105      -7428.9854
         1        22       106      -10089.793
         1        22       108      -7645.0005
         1        22       110       -8943.173
         1        22       112      -10780.389
         1        22       113      -226.17558
         1        22       115      -5996.8896
         1        22       117      -7417.3657
         1        22       119        -6016.33
         1        22       120       -2918.868
         1        22       122      -3363.0242
         1        22       124       -4073.319