# WEL package for  MODFLOW-NWT, generated by Flopy.
      1591         0 
SPECIFY        0.1         50
      1591         0 # stress period 1
         1        57       218        4161.706
         1        57       219        4161.706
         1        58       217        4161.706
         1        58       218        4161.706
         1        58       220        4161.706
         1        58       221        4161.706
         1        58       222        4161.706
         1        59       216        4161.706
         1        59       222        4161.706
         1        60       215        4161.706
         1        60       221        4161.706
         1        60       226        4161.706
         1        61       216        4161.706
         1        61       222        4161.706
         1        61       224        4161.706
         1        61       225        4161.706
         1        61       227        4161.706
         1        62       216        4161.706
         1        62       222        4161.706
         1        62       223        4161.706
         1        62       226        4161.706
         1        62       235        4161.706
         1        62       236        4161.706
         1        63       198        4161.706
         1        63       199        4161.706
         1        63       200        4161.706
         1        63       202        4161.706
         1        63       205        4161.706
         1        63       206        4161.706
         1        63       207        4161.706
         1        63       208        4161.706
         1        63       209        4161.706
         1        63       216        4161.706
         1        63       226        4161.706
         1        63       235        4161.706
         1        63       236        4161.706
         1        63       237        4161.706
         1        63       238        4161.706
         1        63       239        4161.706
         1        64       175        4161.706
         1        64       176        4161.706
         1        64       177        4161.706
         1        64       198        4161.706
         1        64       201        4161.706
         1        64       202        4161.706
         1        64       204        4161.706
         1        64       208        4161.706
         1        64       210        4161.706
         1        64       215        4161.706
         1        64       216        4161.706
         1        64       227        4161.706
         1        64       234        4161.706
         1        64       235        4161.706
         1        64       236        4161.706
         1        64       237        4161.706
         1        64       238        4161.706
         1        64       239        4161.706
         1        65       124        4161.706
         1        65       125        4161.706
         1        65       126        4161.706
         1        65       168        4161.706
         1        65       169        4161.706
         1        65       170        4161.706
         1        65       175        4161.706
         1        65       177        4161.706
         1        65       178        4161.706
         1        65       179        4161.706
         1        65       198        4161.706
         1        65       201        4161.706
         1        65       203        4161.706
         1        65       204        4161.706
         1        65       205        4161.706
         1        65       210        4161.706
         1        65       211        4161.706
         1        65       212        4161.706
         1        65       214        4161.706
         1        65       226        4161.706
         1        65       227        4161.706
         1        65       228        4161.706
         1        65       229        4161.706
         1        65       231        4161.706
         1        65       232        4161.706
         1        65       233        4161.706
         1        65       234        4161.706
         1        65       235        4161.706
         1        65       237        4161.706
         1        65       239        4161.706
         1        66       123        4161.706
         1        66       127        4161.706
         1        66       163        4161.706
         1        66       164        4161.706
         1        66       167        4161.706
         1        66       171        4161.706
         1        66       174        4161.706
         1        66       178        4161.706
         1        66       180        4161.706
         1        66       181        4161.706
         1        66       182        4161.706
         1        66       183        4161.706
         1        66       184        4161.706
         1        66       185        4161.706
         1        66       197        4161.706
         1        66       198        4161.706
         1        66       199        4161.706
         1        66       201        4161.706
         1        66       204        4161.706
         1        66       205        4161.706
         1        66       210        4161.706
         1        66       213        4161.706
         1        66       214        4161.706
         1        66       226        4161.706
         1        66       229        4161.706
         1        66       230        4161.706
         1        66       233        4161.706
         1        66       234        4161.706
         1        66       235        4161.706
         1        66       236        4161.706
         1        66       237        4161.706
         1        66       239        4161.706
         1        66       240        4161.706
         1        66       241        4161.706
         1        66       242        4161.706
         1        66       246        4161.706
         1        66       247        4161.706
         1        67       121        4161.706
         1        67       122        4161.706
         1        67       123        4161.706
         1        67       124        4161.706
         1        67       125        4161.706
         1        67       126        4161.706
         1        67       127        4161.706
         1        67       128        4161.706
         1        67       129        4161.706
         1        67       130        4161.706
         1        67       131        4161.706
         1        67       132        4161.706
         1        67       145        4161.706
         1        67       147        4161.706
         1        67       151        4161.706
         1        67       152        4161.706
         1        67       153        4161.706
         1        67       162        4161.706
         1        67       165        4161.706
         1        67       166        4161.706
         1        67       167        4161.706
         1        67       172        4161.706
         1        67       173        4161.706
         1        67       179        4161.706
         1        67       180        4161.706
         1        67       181        4161.706
         1        67       185        4161.706
         1        67       186        4161.706
         1        67       187        4161.706
         1        67       188        4161.706
         1        67       189        4161.706
         1        67       190        4161.706
         1        67       197        4161.706
         1        67       199        4161.706
         1        67       201        4161.706
         1        67       204        4161.706
         1        67       205        4161.706
         1        67       206        4161.706
         1        67       207        4161.706
         1        67       208        4161.706
         1        67       210        4161.706
         1        67       214        4161.706
         1        67       225        4161.706
         1        67       229        4161.706
         1        67       234        4161.706
         1        67       235        4161.706
         1        67       237        4161.706
         1        67       238        4161.706
         1        67       242        4161.706
         1        67       243        4161.706
         1        67       246        4161.706
         1        67       247        4161.706
         1        67       248        4161.706
         1        67       249        4161.706
         1        67       250        4161.706
         1        68       120        4161.706
         1        68       121        4161.706
         1        68       122        4161.706
         1        68       127        4161.706
         1        68       133        4161.706
         1        68       137        4161.706
         1        68       139        4161.706
         1        68       140        4161.706
         1        68       141        4161.706
         1        68       143        4161.706
         1        68       144        4161.706
         1        68       145        4161.706
         1        68       146        4161.706
         1        68       147        4161.706
         1        68       148        4161.706
         1        68       149        4161.706
         1        68       150        4161.706
         1        68       152        4161.706
         1        68       153        4161.706
         1        68       161        4161.706
         1        68       162        4161.706
         1        68       165        4161.706
         1        68       178        4161.706
         1        68       180        4161.706
         1        68       181        4161.706
         1        68       184        4161.706
         1        68       190        4161.706
         1        68       191        4161.706
         1        68       192        4161.706
         1        68       196        4161.706
         1        68       199        4161.706
         1        68       202        4161.706
         1        68       203        4161.706
         1        68       208        4161.706
         1        68       211        4161.706
         1        68       212        4161.706
         1        68       215        4161.706
         1        68       216        4161.706
         1        68       225        4161.706
         1        68       229        4161.706
         1        68       234        4161.706
         1        68       237        4161.706
         1        68       238        4161.706
         1        68       241        4161.706
         1        68       243        4161.706
         1        68       246        4161.706
         1        68       248        4161.706
         1        68       250        4161.706
         1        69       128        4161.706
         1        69       130        4161.706
         1        69       131        4161.706
         1        69       133        4161.706
         1        69       134        4161.706
         1        69       135        4161.706
         1        69       136        4161.706
         1        69       137        4161.706
         1        69       138        4161.706
         1        69       140        4161.706
         1        69       142        4161.706
         1        69       143        4161.706
         1        69       145        4161.706
         1        69       146        4161.706
         1        69       148        4161.706
         1        69       153        4161.706
         1        69       154        4161.706
         1        69       160        4161.706
         1        69       166        4161.706
         1        69       167        4161.706
         1        69       178        4161.706
         1        69       180        4161.706
         1        69       181        4161.706
         1        69       184        4161.706
         1        69       189        4161.706
         1        69       191        4161.706
         1        69       193        4161.706
         1        69       194        4161.706
         1        69       195        4161.706
         1        69       196        4161.706
         1        69       200        4161.706
         1        69       202        4161.706
         1        69       203        4161.706
         1        69       208        4161.706
         1        69       212        4161.706
         1        69       216        4161.706
         1        69       225        4161.706
         1        69       230        4161.706
         1        69       235        4161.706
         1        69       237        4161.706
         1        69       241        4161.706
         1        69       244        4161.706
         1        69       246        4161.706
         1        69       248        4161.706
         1        69       251        4161.706
         1        69       254        4161.706
         1        69       255        4161.706
         1        69       256        4161.706
         1        70       128        4161.706
         1        70       129        4161.706
         1        70       131        4161.706
         1        70       134        4161.706
         1        70       143        4161.706
         1        70       144        4161.706
         1        70       146        4161.706
         1        70       147        4161.706
         1        70       148        4161.706
         1        70       152        4161.706
         1        70       154        4161.706
         1        70       160        4161.706
         1        70       168        4161.706
         1        70       180        4161.706
         1        70       181        4161.706
         1        70       184        4161.706
         1        70       189        4161.706
         1        70       191        4161.706
         1        70       194        4161.706
         1        70       195        4161.706
         1        70       196        4161.706
         1        70       200        4161.706
         1        70       208        4161.706
         1        70       212        4161.706
         1        70       216        4161.706
         1        70       230        4161.706
         1        70       231        4161.706
         1        70       235        4161.706
         1        70       236        4161.706
         1        70       241        4161.706
         1        70       244        4161.706
         1        70       245        4161.706
         1        70       249        4161.706
         1        70       251        4161.706
         1        70       254        4161.706
         1        70       256        4161.706
         1        70       276        4161.706
         1        70       277        4161.706
         1        70       278        4161.706
         1        71       131        4161.706
         1        71       143        4161.706
         1        71       145        4161.706
         1        71       149        4161.706
         1        71       152        4161.706
         1        71       154        4161.706
         1        71       161        4161.706
         1        71       169        4161.706
         1        71       170        4161.706
         1        71       171        4161.706
         1        71       180        4161.706
         1        71       181        4161.706
         1        71       184        4161.706
         1        71       185        4161.706
         1        71       186        4161.706
         1        71       188        4161.706
         1        71       194        4161.706
         1        71       195        4161.706
         1        71       196        4161.706
         1        71       197        4161.706
         1        71       201        4161.706
         1        71       208        4161.706
         1        71       212        4161.706
         1        71       217        4161.706
         1        71       230        4161.706
         1        71       236        4161.706
         1        71       241        4161.706
         1        71       244        4161.706
         1        71       246        4161.706
         1        71       249        4161.706
         1        71       252        4161.706
         1        71       253        4161.706
         1        71       254        4161.706
         1        71       256        4161.706
         1        71       257        4161.706
         1        71       266        4161.706
         1        71       271        4161.706
         1        71       275        4161.706
         1        71       279        4161.706
         1        72       131        4161.706
         1        72       134        4161.706
         1        72       135        4161.706
         1        72       136        4161.706
         1        72       137        4161.706
         1        72       138        4161.706
         1        72       139        4161.706
         1        72       140        4161.706
         1        72       154        4161.706
         1        72       157        4161.706
         1        72       158        4161.706
         1        72       159        4161.706
         1        72       160        4161.706
         1        72       161        4161.706
         1        72       162        4161.706
         1        72       163        4161.706
         1        72       164        4161.706
         1        72       165        4161.706
         1        72       180        4161.706
         1        72       182        4161.706
         1        72       186        4161.706
         1        72       188        4161.706
         1        72       193        4161.706
         1        72       194        4161.706
         1        72       195        4161.706
         1        72       198        4161.706
         1        72       202        4161.706
         1        72       203        4161.706
         1        72       208        4161.706
         1        72       212        4161.706
         1        72       217        4161.706
         1        72       218        4161.706
         1        72       231        4161.706
         1        72       236        4161.706
         1        72       244        4161.706
         1        72       245        4161.706
         1        72       246        4161.706
         1        72       249        4161.706
         1        72       254        4161.706
         1        72       257        4161.706
         1        72       258        4161.706
         1        72       261        4161.706
         1        72       262        4161.706
         1        72       263        4161.706
         1        72       265        4161.706
         1        72       266        4161.706
         1        72       267        4161.706
         1        72       270        4161.706
         1        72       272        4161.706
         1        72       273        4161.706
         1        72       274        4161.706
         1        72       279        4161.706
         1        73       131        4161.706
         1        73       132        4161.706
         1        73       133        4161.706
         1        73       134        4161.706
         1        73       141        4161.706
         1        73       154        4161.706
         1        73       157        4161.706
         1        73       158        4161.706
         1        73       159        4161.706
         1        73       161        4161.706
         1        73       162        4161.706
         1        73       180        4161.706
         1        73       186        4161.706
         1        73       189        4161.706
         1        73       194        4161.706
         1        73       198        4161.706
         1        73       209        4161.706
         1        73       219        4161.706
         1        73       220        4161.706
         1        73       221        4161.706
         1        73       231        4161.706
         1        73       236        4161.706
         1        73       244        4161.706
         1        73       247        4161.706
         1        73       249        4161.706
         1        73       254        4161.706
         1        73       256        4161.706
         1        73       257        4161.706
         1        73       258        4161.706
         1        73       259        4161.706
         1        73       260        4161.706
         1        73       262        4161.706
         1        73       263        4161.706
         1        73       265        4161.706
         1        73       267        4161.706
         1        73       268        4161.706
         1        73       269        4161.706
         1        73       278        4161.706
         1        74       131        4161.706
         1        74       141        4161.706
         1        74       149        4161.706
         1        74       150        4161.706
         1        74       155        4161.706
         1        74       156        4161.706
         1        74       157        4161.706
         1        74       158        4161.706
         1        74       159        4161.706
         1        74       162        4161.706
         1        74       179        4161.706
         1        74       186        4161.706
         1        74       189        4161.706
         1        74       190        4161.706
         1        74       195        4161.706
         1        74       197        4161.706
         1        74       198        4161.706
         1        74       209        4161.706
         1        74       222        4161.706
         1        74       223        4161.706
         1        74       231        4161.706
         1        74       236        4161.706
         1        74       243        4161.706
         1        74       244        4161.706
         1        74       247        4161.706
         1        74       249        4161.706
         1        74       252        4161.706
         1        74       253        4161.706
         1        74       256        4161.706
         1        74       259        4161.706
         1        74       262        4161.706
         1        74       264        4161.706
         1        74       265        4161.706
         1        74       267        4161.706
         1        74       269        4161.706
         1        74       278        4161.706
         1        74       280        4161.706
         1        74       282        4161.706
         1        75       141        4161.706
         1        75       142        4161.706
         1        75       143        4161.706
         1        75       148        4161.706
         1        75       157        4161.706
         1        75       158        4161.706
         1        75       159        4161.706
         1        75       162        4161.706
         1        75       163        4161.706
         1        75       186        4161.706
         1        75       190        4161.706
         1        75       194        4161.706
         1        75       197        4161.706
         1        75       210        4161.706
         1        75       223        4161.706
         1        75       232        4161.706
         1        75       236        4161.706
         1        75       237        4161.706
         1        75       247        4161.706
         1        75       249        4161.706
         1        75       252        4161.706
         1        75       253        4161.706
         1        75       254        4161.706
         1        75       255        4161.706
         1        75       257        4161.706
         1        75       258        4161.706
         1        75       259        4161.706
         1        75       265        4161.706
         1        75       270        4161.706
         1        75       277        4161.706
         1        75       278        4161.706
         1        75       279        4161.706
         1        75       281        4161.706
         1        75       282        4161.706
         1        76       143        4161.706
         1        76       144        4161.706
         1        76       149        4161.706
         1        76       150        4161.706
         1        76       151        4161.706
         1        76       157        4161.706
         1        76       158        4161.706
         1        76       159        4161.706
         1        76       160        4161.706
         1        76       161        4161.706
         1        76       163        4161.706
         1        76       194        4161.706
         1        76       197        4161.706
         1        76       210        4161.706
         1        76       211        4161.706
         1        76       224        4161.706
         1        76       232        4161.706
         1        76       238        4161.706
         1        76       248        4161.706
         1        76       249        4161.706
         1        76       256        4161.706
         1        76       257        4161.706
         1        76       259        4161.706
         1        76       265        4161.706
         1        76       270        4161.706
         1        76       271        4161.706
         1        76       282        4161.706
         1        76       295        4161.706
         1        76       296        4161.706
         1        77       144        4161.706
         1        77       147        4161.706
         1        77       148        4161.706
         1        77       149        4161.706
         1        77       160        4161.706
         1        77       162        4161.706
         1        77       164        4161.706
         1        77       197        4161.706
         1        77       212        4161.706
         1        77       224        4161.706
         1        77       225        4161.706
         1        77       232        4161.706
         1        77       233        4161.706
         1        77       248        4161.706
         1        77       250        4161.706
         1        77       258        4161.706
         1        77       264        4161.706
         1        77       265        4161.706
         1        77       271        4161.706
         1        77       281        4161.706
         1        77       283        4161.706
         1        77       284        4161.706
         1        77       294        4161.706
         1        77       297        4161.706
         1        78       145        4161.706
         1        78       146        4161.706
         1        78       149        4161.706
         1        78       153        4161.706
         1        78       162        4161.706
         1        78       163        4161.706
         1        78       171        4161.706
         1        78       198        4161.706
         1        78       226        4161.706
         1        78       227        4161.706
         1        78       248        4161.706
         1        78       250        4161.706
         1        78       259        4161.706
         1        78       264        4161.706
         1        78       271        4161.706
         1        78       281        4161.706
         1        78       282        4161.706
         1        78       285        4161.706
         1        78       294        4161.706
         1        78       297        4161.706
         1        78       298        4161.706
         1        79       149        4161.706
         1        79       153        4161.706
         1        79       171        4161.706
         1        79       172        4161.706
         1        79       173        4161.706
         1        79       174        4161.706
         1        79       198        4161.706
         1        79       227        4161.706
         1        79       228        4161.706
         1        79       229        4161.706
         1        79       230        4161.706
         1        79       248        4161.706
         1        79       251        4161.706
         1        79       259        4161.706
         1        79       265        4161.706
         1        79       271        4161.706
         1        79       284        4161.706
         1        79       286        4161.706
         1        79       287        4161.706
         1        79       288        4161.706
         1        79       290        4161.706
         1        79       291        4161.706
         1        79       292        4161.706
         1        79       293        4161.706
         1        79       294        4161.706
         1        79       298        4161.706
         1        79       300        4161.706
         1        80       150        4161.706
         1        80       151        4161.706
         1        80       153        4161.706
         1        80       160        4161.706
         1        80       171        4161.706
         1        80       172        4161.706
         1        80       198        4161.706
         1        80       231        4161.706
         1        80       249        4161.706
         1        80       252        4161.706
         1        80       258        4161.706
         1        80       265        4161.706
         1        80       266        4161.706
         1        80       267        4161.706
         1        80       271        4161.706
         1        80       285        4161.706
         1        80       286        4161.706
         1        80       289        4161.706
         1        80       290        4161.706