# WEL package for  MODFLOW-NWT, generated by Flopy.
      9299         0 
SPECIFY        0.1         50
      9299         0 # stress period 1
         1        29         2       -2.085759
         1        30         2       -2.085759
         1        31         2      -4.1717134
         1        29         3       -2.085759
         1        30         3       -2.085759
         1        31         3      -4.1717134
         1        32         4      -2.0859544
         1        33         4      -2.0859544
         1        34         4      -2.0860524
         1        35         4      -2.0860524
         1        43         4       -2.520386
         1        44         4       -2.520386
         1        45         4      -2.5205038
         1        46         4      -2.5205038
         1        32         5      -2.0859544
         1        33         5      -2.0859544
         1        34         5      -2.0860524
         1        35         5      -2.0860524
         1        43         5       -2.520386
         1        44         5       -2.520386
         1        45         5      -2.5205038
         1        46         5      -2.5205038
         1        29         6       -2.085759
         1        30         6       -2.085759
         1        32         6      -2.0859544
         1        33         6      -2.0859544
         1        34         6      -2.0860524
         1        35         6      -2.0860524
         1        36         6        -2.08615
         1        37         6        -2.08615
         1        40         6        -2.52015
         1        41         6        -2.52015
         1        42         6       -5.040536
         1        45         6      -2.5205038
         1        46         6      -2.5205038
         1        29         7       -2.085759
         1        30         7       -2.085759
         1        32         7      -2.0859544
         1        33         7      -2.0859544
         1        34         7      -2.0860524
         1        35         7      -2.0860524
         1        36         7        -2.08615
         1        37         7        -2.08615
         1        40         7        -2.52015
         1        41         7        -2.52015
         1        42         7       -5.040536
         1        45         7      -2.5205038
         1        46         7      -2.5205038
         1        27         8      -2.0856612
         1        28         8      -2.0856612
         1        29         8       -2.085759
         1        30         8       -2.085759
         1        32         8       -4.171909
         1        33         8       -4.171909
         1        34         8       -4.172105
         1        35         8       -4.172105
         1        36         8         -4.1723
         1        37         8         -4.1723
         1        40         8         -5.0403
         1        41         8         -5.0403
         1        42         8      -10.081072
         1        43         8      -0.5035731
         1        44         8      -0.5035731
         1        27         9      -2.0856612
         1        28         9      -2.0856612
         1        29         9       -2.085759
         1        30         9       -2.085759
         1        32         9      -2.0859544
         1        33         9      -2.0859544
         1        34         9      -2.0860524
         1        35         9      -2.0860524
         1        36         9        -2.08615
         1        37         9        -2.08615
         1        38         9      -2.0862477
         1        39         9      -2.0862477
         1        42         9       -5.040536
         1        43         9       -2.520386
         1        44         9       -2.520386
         1        25        10       -4.171126
         1        26        10       -4.171126
         1        32        10      -2.0859544
         1        33        10      -2.0859544
         1        34        10      -2.0860524
         1        35        10      -2.0860524
         1        36        10        -2.08615
         1        37        10        -2.08615
         1        38        10      -2.0862477
         1        39        10      -2.0862477
         1        42        10       -5.040536
         1        43        10       -2.520386
         1        44        10       -2.520386
         1        25        11       -2.085563
         1        26        11       -2.085563
         1        27        11      -2.0856612
         1        28        11      -2.0856612
         1        32        11      -2.0859544
         1        33        11      -2.0859544
         1        34        11      -2.0860524
         1        35        11      -2.0860524
         1        43        11      -3.3605146
         1        44        11      -3.3605146
         1        45        11      -2.5205038
         1        46        11      -2.5205038
         1        25        12       -2.085563
         1        26        12       -2.085563
         1        27        12      -2.0856612
         1        28        12      -2.0856612
         1        32        12      -2.0859544
         1        33        12      -2.0859544
         1        34        12      -2.0860524
         1        35        12      -2.0860524
         1        44        12      -3.3605146
         1        45        12      -2.5205038
         1        46        12      -2.5205038
         1        23        13      -5.4598155
         1        24        13      -5.4598155
         1        25        13      -5.4600716
         1        26        13      -5.4600716
         1        27        13      -5.4603286
         1        28        13      -5.4603286
         1        31        13      -10.921681
         1        32        13       -5.461097
         1        33        13       -5.461097
         1        34        13       -5.461353
         1        35        13       -5.461353
         1        36        13       -5.461609
         1        37        13       -5.461609
         1        38        13      -5.4618645
         1        39        13      -5.4618645
         1        40        13      -2.4835198
         1        41        13      -2.4835198
         1        42        13       -2.483636
         1        43        13       -2.483636
         1        47        13      -2.4839842
         1        48        13      -2.4839842
         1        23        14      -5.4598155
         1        24        14      -5.4598155
         1        25        14      -5.4600716
         1        26        14      -5.4600716
         1        27        14      -5.4603286
         1        28        14      -5.4603286
         1        31        14      -10.921681
         1        32        14       -5.461097
         1        33        14       -5.461097
         1        34        14       -5.461353
         1        35        14       -5.461353
         1        36        14       -5.461609
         1        37        14       -5.461609
         1        38        14      -5.4618645
         1        39        14      -5.4618645
         1        40        14      -2.4835198
         1        41        14      -2.4835198
         1        42        14       -2.483636
         1        43        14       -2.483636
         1        47        14      -2.4839842
         1        48        14      -2.4839842
         1        21        15       -5.459559
         1        22        15       -5.459559
         1        23        15      -5.4598155
         1        24        15      -5.4598155
         1        27        15      -5.4603286
         1        28        15      -5.4603286
         1        31        15      -10.921681
         1        32        15       -5.461097
         1        33        15       -5.461097
         1        34        15       -5.461353
         1        35        15       -5.461353
         1        36        15       -5.461609
         1        37        15       -5.461609
         1        40        15      -4.9670396
         1        41        15      -4.9670396
         1        42        15       -4.967272
         1        43        15       -4.967272
         1        44        15       -9.935009
         1        47        15      -4.9679685
         1        48        15      -4.9679685
         1        51        15      -4.9684324
         1        52        15      -4.9684324
         1        21        16       -5.459559
         1        22        16       -5.459559
         1        23        16      -5.4598155
         1        24        16      -5.4598155
         1        27        16      -5.4603286
         1        28        16      -5.4603286
         1        31        16      -10.921681
         1        32        16       -5.461097
         1        33        16       -5.461097
         1        34        16       -5.461353
         1        35        16       -5.461353
         1        36        16       -5.461609
         1        37        16       -5.461609
         1        38        16      -5.4618645
         1        39        16      -5.4618645
         1        44        16     -0.48681545
         1        47        16      -2.4839842
         1        48        16      -2.4839842
         1        51        16     -0.24345317
         1        52        16     -0.24345317
         1        21        17      -10.919118
         1        22        17      -10.919118
         1        23        17      -10.919631
         1        24        17      -10.919631
         1        27        17      -10.920657
         1        28        17      -10.920657
         1        34        17      -10.922706
         1        35        17      -10.922706
         1        36        17      -10.923218
         1        37        17      -10.923218
         1        38        17      -5.4618645
         1        39        17      -5.4618645
         1        44        17     -0.48681545
         1        47        17      -2.4839842
         1        48        17      -2.4839842
         1        51        17     -0.24345317
         1        52        17     -0.24345317
         1        21        18       -5.459559
         1        22        18       -5.459559
         1        31        18      -10.921681
         1        32        18       -5.461097
         1        33        18       -5.461097
         1        34        18       -5.461353
         1        35        18       -5.461353
         1        36        18       -5.461609
         1        37        18       -5.461609
         1        38        18      -5.4618645
         1        39        18      -5.4618645
         1        47        18      -2.4839842
         1        48        18      -2.4839842
         1        21        19       -5.459559
         1        22        19       -5.459559
         1        31        19      -10.921681
         1        32        19       -5.461097
         1        33        19       -5.461097
         1        34        19       -5.461353
         1        35        19       -5.461353
         1        36        19       -5.461609
         1        37        19       -5.461609
         1        38        19      -5.4618645
         1        39        19      -5.4618645
         1        47        19      -2.4839842
         1        48        19      -2.4839842
         1        21        20       -5.459559
         1        22        20       -5.459559
         1        23        20      -5.4598155
         1        24        20      -5.4598155
         1        29        20      -0.5422361
         1        30        20      -0.5422361
         1        31        20       -7.281121
         1        32        20       -7.281462
         1        33        20       -7.281462
         1        34        20       -5.461353
         1        35        20       -5.461353
         1        36        20       -5.461609
         1        37        20       -5.461609
         1        38        20      -5.4618645
         1        39        20      -5.4618645
         1        40        20      -2.4835198
         1        41        20      -2.4835198
         1        47        20      -2.4839842
         1        48        20      -2.4839842
         1        49        20         -2.4841
         1        50        20         -2.4841
         1        53        20      -2.4843318
         1        54        20      -2.4843318
         1        73        20      -3.6308541
         1        74        20      -3.6308541
         1        21        21       -5.459559
         1        22        21       -5.459559
         1        23        21      -5.4598155
         1        24        21      -5.4598155
         1        29        21      -0.5422361
         1        30        21      -0.5422361
         1        31        21       -7.281121
         1        32        21       -7.281121
         1        33        21       -7.281462
         1        34        21       -5.461353
         1        35        21       -5.461353
         1        36        21       -5.461609
         1        37        21       -5.461609
         1        38        21      -5.4618645
         1        39        21      -5.4618645
         1        40        21      -2.4835198
         1        41        21      -2.4835198
         1        47        21      -2.4839842
         1        48        21      -2.4839842
         1        49        21         -2.4841
         1        50        21         -2.4841
         1        53        21      -2.4843318
         1        54        21      -2.4843318
         1        73        21      -3.6308541
         1        74        21      -3.6308541
         1        76        21      -4.8413634
         1        77        21      -1.4291128
         1        78        21      -1.4291128
         1        79        21      -2.8583581
         1        80        21      -1.4292451
         1        81        21      -1.4292451
         1        21        22       -5.459559
         1        22        22       -5.459559
         1        29        22      -5.4605846
         1        30        22      -5.4605846
         1        31        22      -5.4608407
         1        32        22      -5.4608407
         1        33        22      -10.922194
         1        34        22       -5.461353
         1        35        22       -5.461353
         1        38        22      -5.4618645
         1        39        22      -5.4618645
         1        40        22      -2.4835198
         1        41        22      -2.4835198
         1        44        22       -9.935009
         1        47        22      -4.9679685
         1        48        22      -4.9679685
         1        49        22         -4.9682
         1        50        22         -4.9682
         1        53        22      -4.9686637
         1        54        22      -4.9686637
         1        71        22      -7.2613716
         1        72        22      -7.2613716
         1        75        22      -4.8413634
         1        76        22      -4.8413634
         1        77        22      -1.4291128
         1        78        22      -1.4291128
         1        79        22      -2.8583581
         1        80        22      -1.4292451
         1        81        22      -1.4292451
         1        21        23       -5.459559
         1        22        23       -5.459559
         1        29        23      -5.4605846
         1        30        23      -5.4605846
         1        31        23      -5.4608407
         1        32        23      -5.4608407
         1        33        23      -10.922194
         1        34        23       -5.461353
         1        35        23       -5.461353
         1        38        23      -5.4618645
         1        39        23      -5.4618645
         1        40        23      -2.4835198
         1        41        23      -2.4835198
         1        49        23         -2.4841
         1        50        23         -2.4841
         1        71        23      -3.6306858
         1        72        23      -3.6306858
         1        75        23      -3.6310227
         1        76        23      -3.6310227
         1        77        23      -1.4291128
         1        78        23      -1.4291128
         1        79        23      -0.2858358
         1        80        23      -1.4292451
         1        81        23      -1.4292451
         1        82        23      -1.4293113
         1        83        23      -1.4293113
         1        21        24      -10.919118
         1        22        24      -10.919118
         1        23        24      -10.919631
         1        24        24      -10.919631
         1        25        24      -10.920143
         1        26        24      -10.920143
         1        31        24      -10.921681
         1        32        24      -10.921681
         1        33        24      -21.844387
         1        34        24      -10.922706
         1        35        24      -10.922706
         1        38        24      -10.923729
         1        39        24      -10.923729
         1        40        24      -4.9670396
         1        41        24      -4.9670396
         1        42        24       -4.967272
         1        43        24       -4.967272
         1        49        24         -2.4841
         1        50        24         -2.4841
         1        71        24      -3.6306858
         1        72        24      -3.6306858
         1        75        24      -3.6310227
         1        76        24      -3.6310227
         1        77        24      -1.4291128
         1        78        24      -1.4291128
         1        79        24      -0.2858358
         1        80        24      -1.4292451
         1        81        24      -1.4292451
         1        82        24      -1.4293113
         1        83        24      -1.4293113
         1        21        25       -5.459559
         1        22        25       -5.459559
         1        23        25      -5.4598155
         1        24        25      -5.4598155
         1        25        25      -5.4600716
         1        26        25      -5.4600716
         1        31        25      -5.4608407
         1        32        25      -5.4608407
         1        33        25      -10.922194
         1        34        25       -5.461353
         1        35        25       -5.461353
         1        40        25      -2.4835198
         1        41        25      -2.4835198
         1        44        25      -4.9675045
         1        49        25         -2.4841
         1        50        25         -2.4841
         1        51        25      -2.4842162
         1        52        25      -2.4842162
         1        55        25      -2.4844477
         1        56        25      -2.4844477
         1        69        25      -3.6305175
         1        70        25      -3.6305175
         1        71        25      -3.6306858
         1        72        25      -3.6306858
         1        75        25      -3.6310227
         1        76        25      -3.6310227
         1        79        25      -0.1905572
         1        80        25      -1.9056602
         1        81        25      -1.9056602
         1        82        25      -1.4293113
         1        83        25      -1.4293113
         1        21        26       -5.459559
         1        22        26       -5.459559
         1        23        26      -5.4598155
         1        24        26      -5.4598155
         1        25        26      -5.4600716
         1        26        26      -5.4600716
         1        31        26      -5.4608407
         1        32        26      -5.4608407
         1        33        26      -10.922194
         1        34        26       -5.461353
         1        35        26       -5.461353
         1        40        26      -2.4835198
         1        41        26      -2.4835198
         1        44        26      -4.9675045
         1        49        26         -2.4841
         1        50        26         -2.4841
         1        51        26      -2.4842162
         1        52        26      -2.4842162
         1        55        26      -2.4844477
         1        56        26      -2.4844477
         1        69        26      -3.6305175
         1        70        26      -3.6305175
         1        71        26      -3.6306858
         1        72        26      -3.6306858
         1        75        26      -3.6310227
         1        76        26      -3.6310227
         1        79        26      -0.1905572
         1        80        26      -0.1905572
         1        81        26      -1.9056602
         1        82        26      -1.4293113
         1        83        26      -1.4293113
         1        20        27      -14.666513
         1        21        27       -5.459559
         1        22        27       -5.459559
         1        25        27      -5.4600716
         1        26        27      -5.4600716
         1        31        27      -5.4608407
         1        32        27      -5.4608407
         1        33        27      -10.922194
         1        34        27       -5.461353
         1        35        27       -5.461353
         1        36        27       -5.461609
         1        37        27       -5.461609
         1        40        27      -2.4835198
         1        41        27      -2.4835198
         1        45        27      -2.4838681
         1        46        27      -2.4838681
         1        51        27     -0.24345317
         1        52        27     -0.24345317
         1        55        27      -2.4844477
         1        56        27      -2.4844477
         1        66        27      -3.6301801
         1        67        27      -3.6301801
         1        68        27      -7.2606974
         1        71        27      -3.6306858
         1        72        27      -3.6306858
         1        75        27      -3.6310227
         1        76        27      -3.6310227
         1        81        27      -188.69385
         1        82        27      -1.4293113
         1        83        27      -1.4293113
         1        84        27      -2.8587549
         1        85        27      -2.8587549
         1        20        28      -14.666513
         1        21        28       -5.459559
         1        22        28       -5.459559
         1        25        28      -5.4600716
         1        26        28      -5.4600716
         1        31        28      -5.4608407
         1        32        28      -5.4608407
         1        33        28      -10.922194
         1        34        28       -5.461353
         1        35        28       -5.461353
         1        36        28       -5.461609
         1        37        28       -5.461609
         1        40        28      -2.4835198
         1        41        28      -2.4835198
         1        45        28      -2.4838681
         1        46        28      -2.4838681
         1        51        28     -0.24345317
         1        52        28     -0.24345317
         1        55        28      -2.4844477
         1        56        28      -2.4844477
         1        66        28      -3.6301801
         1        67        28      -3.6301801
         1        68        28      -7.2606974
         1        71        28      -3.6306858
         1        72        28      -3.6306858
         1        75        28      -3.6310227
         1        76        28      -3.6310227
         1        81        28      -188.69385
         1        82        28      -1.4293113
         1        83        28      -1.4293113
         1        84        28      -1.4293774
         1        85        28      -1.4293774
         1        86        28       -94.40353
         1        87        28       -94.40353
         1        20        29       -9.777676
         1        21        29       -7.279412
         1        22        29       -7.279412
         1        29        29      -5.4605846
         1        30        29      -5.4605846
         1        31        29      -5.4608407
         1        32        29      -5.4608407
         1        33        29      -10.922194
         1        40        29      -2.4835198
         1        41        29      -2.4835198
         1        42        29       -2.483636
         1        43        29       -2.483636
         1        44        29      -4.9675045
         1        45        29      -2.4838681
         1        46        29      -2.4838681
         1        47        29      -2.4839842
         1        48        29      -2.4839842
         1        51        29     -0.48690635
         1        52        29     -0.48690635
         1        55        29     -0.48695177
         1        56        29     -0.48695177
         1        66        29      -7.2603602
         1        67        29      -7.2603602
         1        77        29      -2.8582256
         1        78        29      -2.8582256
         1        79        29      -2.8583581
         1        80        29      -2.8583581
         1        81        29      -5.7169805
         1        82        29      -188.77008
         1        83        29      -188.77008
         1        84        29      -1.4293774
         1        85        29      -1.4293774
         1        86        29       -94.40353
         1        87        29       -94.40353
         1        20        30       -9.777676
         1        21        30       -9.777676
         1        22        30       -7.279412
         1        29        30      -5.4605846
         1        30        30      -5.4605846
         1        31        30      -5.4608407
         1        32        30      -5.4608407
         1        33        30      -10.922194
         1        40        30      -2.4835198
         1        41        30      -2.4835198
         1        42        30       -2.483636
         1        43        30       -2.483636
         1        44        30      -4.9675045
         1        45        30      -2.4838681
         1        46        30      -2.4838681
         1        47        30      -2.4839842
         1        48        30      -2.4839842
         1        66        30      -4.4155016
         1        67        30      -4.4155016
         1        68        30       -8.831413
         1        69        30      -4.4159117
         1        70        30      -4.4159117
         1        75        30      -4.4165263
         1        76        30      -4.4165263
         1        77        30      -3.6281812
         1        78        30      -3.6281812
         1        79        30      -3.6283493
         1        80        30      -3.6283493
         1        81        30      -7.2570343
         1        82        30      -257.62143
         1        83        30      -257.62143
         1        84        30      -3.6288528
         1        85        30      -3.6288528
         1        86        30      -3.6290207
         1        87        30      -3.6290207
         1        20        31       -17.54362
         1        21        31       -17.54362
         1        22        31        -26.8863
         1        31        31      -13.446305
         1        32        31      -13.446305
         1        33        31      -26.893871
         1        38        31      -13.448826
         1        39        31      -13.448826
         1        40        31      -5.5846543
         1        41        31      -5.5846543
         1        42        31      -5.5849156
         1        43        31      -5.5849156
         1        44        31      -11.170355
         1        45        31       -5.585438
         1        46        31       -5.585438
         1        47        31       -5.585699
         1        48        31       -5.585699
         1        49        31       -5.585959
         1        50        31       -5.585959
         1        66        31      -4.4155016
         1        67        31      -4.4155016
         1        68        31       -8.831413
         1        69        31      -4.4159117
         1        70        31      -4.4159117
         1        75        31      -4.4165263
         1        76        31      -4.4165263
         1        77        31      -3.6281812
         1        78        31      -3.6281812
         1        79        31      -3.6283493
         1        80        31      -3.6283493
         1        81        31      -7.2570343
         1        82        31      -257.62143
         1        83        31      -257.62143
         1        84        31      -3.6288528
         1        85        31      -3.6288528
         1        86        31      -3.6290207
         1        87        31      -3.6290207
         1        22        32       -13.44315
         1        23        32      -6.7218904
         1        24        32      -6.7218904
         1        25        32       -6.722206
         1        26        32       -6.722206
         1        31        32      -6.7231526
         1        32        32      -6.7231526
         1        33        32      -13.446936
         1        36        32       -6.724098
         1        37        32       -6.724098
         1        38        32       -6.724413
         1        39        32       -6.724413
         1        40        32      -2.7923272
         1        41        32      -2.7923272
         1        42        32      -2.7924578
         1        43        32      -2.7924578
         1        47        32      -2.7928495
         1        48        32      -2.7928495
         1        49        32      -2.7929795