# WEL package for  MODFLOW-NWT, generated by Flopy.
     81426         0 
SPECIFY        0.1         50
     81426         0 # stress period 1
         1       180         7      -0.4368437
         1       181         7     -0.42402554
         1       180         8       -6.071033
         1       181         8       -5.331374
         1       180         9        -4.14059
         1       181         9      -3.6521459
         1       189         9      -0.9067466
         1       190         9      -1.2389884
         1       191         9     -0.12324347
         1       189        10      -2.2764063
         1       190        10       -3.075462
         1       191        10     -0.32169506
         1       189        11      -2.2487469
         1       190        11      -3.0754752
         1       191        11     -0.34935203
         1       189        12      -2.2211914
         1       190        12       -3.075488
         1       191        12      -0.3769056
         1       178        13       -3094.295
         1       179        13       -4002.959
         1       180        13       -256.8345
         1       189        13     -0.27308816
         1       190        13      -0.3571907
         1       191        13    -0.043574978
         1       192        13      -138.50285
         1       193        13      -5968.4277
         1       194        13      -4946.0576
         1       178        14      -3866.6567
         1       179        14      -4961.4043
         1       180        14      -353.64282
         1       189        14     -0.23463324
         1       190        14     -0.35666004
         1       191        14     -0.05355959
         1       192        14       -86.63778
         1       193        14       -5564.236
         1       194        14      -4569.7393
         1       170        15     -0.83956724
         1       171        15      -5.9036546
         1       172        15       -4.175721
         1       189        15      -1.9944855
         1       190        15      -2.8677683
         1       191        15     -0.42809728
         1       170        16     -0.67538226
         1       171        16      -4.9663043
         1       172        16      -3.4905887
         1       189        16      -1.2681705
         1       190        16      -1.8213649
         1       191        16      -0.2827475
         1       139        18      -1.7964061
         1       140        18      -3.9479108
         1       141        18      -1.5179182
         1       145        18      -4.7286754
         1       146        18      -4.9697213
         1       147        18        -2.55859
         1       148        18      -2.6594632
         1       149        18      -2.7603061
         1       150        18      -1.6879504
         1       180        18      -2.1211452
         1       181        18      -2.3079844
         1       139        19      -11.353292
         1       140        19      -24.208988
         1       141        19       -9.098253
         1       145        19      -22.625746
         1       146        19      -23.054571
         1       147        19      -11.355675
         1       148        19      -11.355675
         1       149        19      -11.355675
         1       150        19      -6.8105974
         1       180        19      -4.0655384
         1       181        19      -4.4189935
         1       130        20       -5.254963
         1       131        20      -7.8968015
         1       132        20      -1.3131698
         1       139        20      -11.138527
         1       140        20      -24.209087
         1       141        20      -15.491094
         1       142        20      -10.255865
         1       143        20      -10.470036
         1       144        20      -10.684142
         1       145        20      -13.169917
         1       146        20      -12.524025
         1       147        20       -6.042966
         1       148        20       -5.942623
         1       149        20        -5.84231
         1       150        20       -3.494005
         1       159        20      -1.0862842
         1       160        20      -6.6153584
         1       161        20      -4.5490527
         1       180        20      -0.9741849
         1       181        20      -1.0355275
         1       130        21      -16.346027
         1       131        21      -24.209187
         1       132        21      -4.1056914
         1       139        21      -10.924599
         1       140        21      -24.209187
         1       141        21      -24.209187
         1       142        21      -24.209187
         1       143        21      -24.209187
         1       144        21      -24.209187
         1       145        21      -2.0114372
         1       159        21       -1.802595
         1       160        21      -11.355767
         1       161        21       -7.790353
         1       130        22       -7.090052
         1       131        22      -10.422527
         1       132        22      -1.8111528
         1       139        22       -3.854212
         1       140        22       -8.502137
         1       141        22       -8.288997
         1       142        22       -8.075926
         1       143        22      -7.8628874
         1       144        22       -7.649912
         1       145        22      -15.886659
         1       146        22      -16.422432
         1       147        22       -8.067051
         1       148        22       -8.166863
         1       149        22       -8.266647
         1       150        22      -5.2370853
         1       159        22      -1.7029797
         1       160        22      -11.355815
         1       161        22       -7.889958
         1       169        22      -3.8473866
         1       170        22      -3.8531814
         1       145        23       -21.77229
         1       146        23      -23.508059
         1       147        23      -11.355861
         1       148        23      -11.355861
         1       149        23      -11.355861
         1       150        23      -7.2106457
         1       152        23   -0.0006467454
         1       153        23    -0.060902342
         1       154        23      -0.0416886
         1       159        23      -1.6037079
         1       160        23       -11.35586
         1       161        23       -7.989223
         1       169        23      -3.6095932
         1       170        23       -3.608931
         1       130        24      -12.635294
         1       131        24      -19.676994
         1       132        24      -3.8976092
         1       145        24      -21.560507
         1       146        24      -23.129606
         1       147        24        -0.53443
         1       148        24      -2.6370597
         1       149        24      -11.355907
         1       150        24       -7.309905
         1       152        24      -5.8008943
         1       153        24     -11.3559065
         1       154        24      -3.7841048
         1       159        24      -1.5047393
         1       160        24     -11.3559065
         1       161        24       -8.088181
         1       130        25      -14.740897
         1       131        25      -22.851755
         1       132        25      -5.9058714
         1       133        25      -1.7803909
         1       134        25      -0.1013351
         1       145        25      -17.551355
         1       146        25      -19.017282
         1       147        25       -2.220033
         1       148        25      -3.6118555
         1       149        25       -8.938443
         1       150        25        -5.76987
         1       152        25      -4.3422356
         1       153        25       -8.543766
         1       154        25      -2.8893888
         1       159        25      -0.9896907
         1       160        25       -7.853962
         1       161        25      -5.5904055
         1       204        25      -1.8029133
         1       205        25      -2.1386538
         1       132        26      -19.041122
         1       133        26      -24.209679
         1       134        26      -1.4104606
         1       146        26      -0.3225716
         1       147        26      -11.355998
         1       148        26       -9.270468
         1       204        26      -2.5960746
         1       205        26      -3.0836968
         1       206        26    -0.009345536
         1       123        27     -0.68726873
         1       124        27       -0.603052
         1       132        27      -18.830524
         1       133        27      -24.209776
         1       134        27       -8.955905
         1       135        27      -7.3897977
         1       139        27      -3.5609682
         1       140        27       -9.138207
         1       141        27       -4.168145
         1       143        27       -6.923777
         1       144        27       -9.976852
         1       145        27      -1.3935978
         1       146        27     -0.22411421
         1       147        27      -11.356044
         1       148        27       -9.368917
         1       204        27     -0.18448965
         1       205        27     -0.19619323
         1       206        27   -0.0013636746
         1       123        28       -2.973704
         1       124        28      -2.5509481
         1       132        28      -18.620733
         1       133        28      -24.209873
         1       134        28      -24.209873
         1       135        28      -22.282326
         1       139        28       -9.444401
         1       140        28      -24.209873
         1       141        28      -11.006984
         1       143        28       -16.96142
         1       144        28      -24.209873
         1       145        28      -3.4898834
         1       146        28     -0.12605217
         1       147        28       -11.35609
         1       148        28       -9.466971
         1       110        29     -0.96856105
         1       111        29      -1.0507251
         1       123        29       -1.554795
         1       124        29      -1.3325791
         1       132        29      -18.411385
         1       133        29       -24.20997
         1       134        29       -24.20997
         1       135        29      -22.491638
         1       139        29      -3.5858564
         1       140        29         -9.1911
         1       141        29      -12.337518
         1       142        29      -15.436027
         1       143        29       -21.57324
         1       144        29       -24.20997
         1       145        29       -3.698618
         1       146        29    -0.019811755
         1       147        29       -3.626791
         1       148        29      -2.9685142
         1       159        29      -0.7907629
         1       160        29       -8.997538
         1       161        29       -9.094935
         1       162        29       -9.192303
         1       163        29       -5.570636
         1       110        30      -2.6624782
         1       111        30      -2.8622298
         1       132        30      -18.202885
         1       133        30      -24.210068
         1       134        30      -24.210068
         1       135        30       -22.70011
         1       141        30       -12.78598
         1       142        30      -24.210068
         1       143        30      -24.210068
         1       144        30      -24.210068
         1       145        30       -3.906533
         1       159        30     -0.89132273
         1       160        30      -10.966904
         1       161        30     -10.9914255
         1       162        30       -11.35618
         1       163        30        -7.18717
         1       164        30      -0.7766029
         1       165        30      -0.5842571
         1       166        30      -0.3929227
         1       167        30      -0.4321021
         1       168        30      -0.4712693
         1       169        30     -0.51042974
         1       170        30     -0.54957956
         1       171        30      -0.5887206
         1       172        30      -0.6278532
         1       173        30     -0.66697496
         1       174        30      -0.7060901
         1       175        30      -0.7451929
         1       176        30      -0.4070748
         1       178        30      -0.5479906
         1       179        30      -0.9015197
         1       180        30     -0.19849727
         1       102        31      -2.3788955
         1       103        31       -9.331946
         1       104        31       -5.548885
         1       108        31       -7.300526
         1       109        31      -10.219729
         1       110        31      -3.8865728
         1       111        31       -2.951007
         1       112        31      -1.8643012
         1       113        31      -1.5303925
         1       132        31      -17.994856
         1       133        31      -24.210165
         1       134        31      -24.210165
         1       135        31      -22.908094
         1       141        31      -12.578448
         1       142        31      -24.210165
         1       143        31      -24.210165
         1       144        31      -24.210165
         1       145        31      -4.1139226
         1       147        31       -10.32757
         1       148        31       -9.090658
         1       161        31      -2.5836432
         1       162        31      -11.356226
         1       163        31      -11.356226
         1       164        31      -11.356226
         1       165        31      -7.7206426
         1       166        31      -4.5994987
         1       167        31      -4.5994987
         1       168        31      -4.5994987
         1       169        31      -4.5994987
         1       170        31      -4.5994973
         1       171        31      -4.5994997
         1       172        31      -4.5994987
         1       173        31      -4.5994987
         1       174        31      -4.5994987
         1       175        31      -4.5994987
         1       176        31      -2.4387083
         1       178        31       -2.875058
         1       179        31      -4.5994987
         1       180        31      -1.0101652
         1       102        32      -4.2970033
         1       103        32      -17.129303
         1       104        32       -10.17335
         1       108        32      -12.273942
         1       109        32      -17.129303
         1       110        32      -4.8071423
         1       111        32      -2.9948137
         1       112        32      -2.9948137
         1       113        32      -2.4490047
         1       128        32   -0.0033258565
         1       132        32      -17.787579
         1       133        32      -24.210258
         1       134        32      -24.210258
         1       135        32      -23.115345
         1       141        32      -10.937262
         1       142        32      -21.226976
         1       143        32      -21.020727
         1       144        32       -20.81454
         1       145        32      -3.6800642
         1       147        32      -11.092855
         1       148        32       -9.856405
         1       161        32      -2.4870908
         1       162        32      -11.356271
         1       163        32       -11.35627
         1       164        32      -11.356271
         1       165        32      -7.7780733
         1       166        32       -4.599517
         1       167        32       -4.599517
         1       168        32       -4.599517
         1       169        32       -4.599517
         1       170        32       -4.599517
         1       171        32       -4.599517
         1       172        32       -4.599517
         1       173        32       -4.599517
         1       174        32      -4.0442786
         1       175        32      -2.7445347
         1       176        32      -1.4576083
         1       178        32      -1.6205705
         1       179        32       -2.589061
         1       180        32     -0.58030003
         1       206        32      -1.8060005
         1       207        32      -1.7398794
         1       102        33      -4.1495805
         1       103        33      -17.129372
         1       104        33       -361.1892
         1       105        33      -891.27826
         1       106        33       -410.1682
         1       107        33      -14.111558
         1       108        33      -954.65186
         1       109        33      -1355.6196
         1       110        33      -189.99704
         1       111        33      -2.9487536
         1       112        33       -0.399084
         1       113        33     -0.76475275
         1       114        33       -2.647115
         1       115        33      -1.7920599
         1       126        33      -0.7438665
         1       127        33       -2.872658
         1       128        33      -1.6866522
         1       132        33      -17.580933
         1       133        33      -24.210356
         1       134        33      -24.210356
         1       135        33      -23.321943
         1       147        33      -10.996327
         1       148        33       -9.952969
         1       161        33      -2.3909109
         1       162        33      -11.356316
         1       163        33      -11.356316
         1       164        33      -11.356316
         1       165        33      -7.8352795
         1       166        33       -4.599535
         1       167        33       -4.599535
         1       168        33       -4.599535
         1       169        33       -4.599535
         1       170        33       -4.599535
         1       171        33       -4.599535
         1       172        33       -4.599535
         1       173        33       -4.599535
         1       174        33      -3.2308035
         1       206        33      -2.6971626
         1       207        33      -2.6077058
         1       231        33     -13.7560835
         1       232        33      -131.26488
         1       233        33      -102.32444
         1       102        34      -17.282707
         1       103        34       -85.53111
         1       104        34      -494.86862
         1       105        34      -1116.9355
         1       106        34       -519.1993
         1       107        34      -17.129438
         1       108        34      -1042.8322
         1       109        34       -1471.347
         1       110        34      -214.73868
         1       111        34      -2.9672062
         1       112        34     -0.33236605
         1       113        34     -0.73344487
         1       114        34      -2.6113799
         1       115        34      -1.7586902
         1       126        34      -0.7270501
         1       127        34        -2.88651
         1       128        34      -4.0655985
         1       129        34       -5.967578
         1       130        34      -2.6930795
         1       132        34      -17.374859
         1       133        34       -24.21045
         1       134        34        -17.9182
         1       135        34       -16.29289
         1       143        34       -5.886523
         1       144        34       -9.272472
         1       145        34      -1.8607163
         1       147        34      -6.4582624
         1       148        34      -6.3914227
         1       149        34      -4.8300323
         1       150        34      -3.5965424
         1       156        34      -4.0479865
         1       157        34      -5.5978427
         1       158        34     -0.62507695
         1       161        34      -1.0904381
         1       162        34      -5.2793627
         1       163        34      -5.1835947
         1       164        34      -5.0878572
         1       165        34      -4.7910404
         1       166        34       -4.599553
         1       167        34       -4.599553
         1       168        34       -4.599553
         1       169        34       -4.599553
         1       170        34       -4.599553
         1       171        34       -4.599553
         1       172        34       -4.599553
         1       173        34       -4.599553
         1       174        34        -3.26956
         1       206        34     -0.25612482
         1       207        34     -0.22992173
         1       231        34      -113.51448
         1       232        34       -1087.986
         1       233        34      -805.44727
         1       102        35      -455.26828
         1       103        35      -2022.3002
         1       104        35      -1762.5383
         1       105        35      -1339.3716
         1       106        35      -631.16974
         1       107        35      -17.129507
         1       108        35      -5.2955737
         1       110        35      -2.5339313
         1       111        35      -2.9948447
         1       112        35      -2.9948537
         1       113        35       -2.525877
         1       126        35     -0.70253414
         1       127        35      -2.8865213
         1       128        35      -11.038176
         1       129        35      -23.334816
         1       130        35      -10.409391
         1       132        35      -17.169579
         1       133        35      -24.210546
         1       134        35      -3.2818468
         1       143        35      -15.514368
         1       144        35      -24.210545
         1       145        35      -4.9368114
         1       148        35      -1.2111558
         1       149        35      -11.356405
         1       150        35       -8.381791
         1       156        35       -8.265104
         1       157        35      -11.356404
         1       158        35      -1.3277655
         1       165        35      -2.3193743
         1       166        35       -4.599571
         1       167        35       -4.599571
         1       168        35       -4.599571
         1       169        35       -4.599571
         1       170        35       -4.599571
         1       171        35       -4.599571
         1       172        35       -4.599571
         1       173        35       -4.599571
         1       174        35      -3.3081605
         1       193        35     -0.48259985
         1       194        35     -0.70194507
         1       195        35      -0.8335251
         1       196        35      -0.8213801
         1       231        35       -68.46184
         1       232        35        -697.056
         1       233        35       -514.8804
         1       102        36      -320.31522
         1       103        36      -1460.5682
         1       104        36      -1261.7456
         1       105        36       -943.2112
         1       106        36      -447.16425
         1       107        36      -11.771845
         1       108        36      -5.3010793
         1       109        36      -2.4187686
         1       110        36      -3.3288713
         1       111        36      -3.5031223
         1       112        36       -3.515561
         1       113        36      -3.2444463
         1       114        36      -1.6602275
         1       115        36      -1.1834304
         1       126        36     -0.83490956
         1       127        36      -3.5678983
         1       128        36       -9.143082
         1       129        36      -17.741781
         1       130        36      -11.380118
         1       131        36        -6.26027
         1       132        36       -9.976607
         1       133        36     -11.3069935
         1       134        36       -7.201478
         1       135        36      -6.6069436
         1       141        36      -3.6059754
         1       142        36      -7.6632276
         1       143        36       -8.715772
         1       144        36       -9.061147
         1       145        36      -1.8741568
         1       148        36     -0.38635048
         1       149        36      -3.7723427
         1       150        36      -2.7433336
         1       156        36      -2.2329328
         1       157        36      -3.0087688
         1       158        36     -0.36119303
         1       161        36      -4.6429057
         1       162        36      -25.352581
         1       163        36      -25.626211
         1       164        36      -25.899754
         1       165        36      -16.178083
         1       166        36       -6.055296
         1       167        36      -2.6577315
         1       168        36     -0.79431564
         1       169        36       -0.755796
         1       170        36      -0.7172874
         1       171        36      -0.6787868
         1       172        36      -0.6402951
         1       173        36     -0.60181355
         1       174        36     -0.41166294
         1       193        36      -13.051174
         1       194        36      -15.808373
         1       195        36      -15.808373
         1       196        36       -13.65458
         1       102        37      -1.5264406
         1       103        37       -7.334927
         1       104        37        -4.66975
         1       108        37      -4.9426875
         1       109        37       -7.334927
         1       110        37       -4.951885
         1       111        37      -4.4607105
         1       112        37      -4.4607105
         1       113        37      -4.4607105
         1       114        37      -4.4607105
         1       115        37      -3.1453311
         1       126        37      -0.9736738
         1       127        37      -4.2993603
         1       128        37      -7.2887855
         1       129        37      -12.130407
         1       130        37      -12.130407
         1       131        37      -12.130407
         1       132        37      -3.7326887
         1       134        37      -10.281278
         1       135        37      -12.094599
         1       136        37   -0.0013484075
         1       141        37       -5.898674
         1       142        37      -12.585649
         1       143        37      -4.7326207
         1       160        37     -0.08050417
         1       161        37       -5.959195
         1       162        37       -32.01044
         1       163        37      -31.738329
         1       164        37      -31.466303
         1       165        37      -18.990345
         1       166        37      -6.0612245
         1       167        37       -2.404349
         1       168        37     -0.44089213
         1       169        37     -0.09731475
         1       185        37     -0.69782144
         1       186        37       -3.705064
         1       187        37      -2.4910607
         1       193        37       -9.350234
         1       194        37      -11.305748
         1       195        37       -8658.658
         1       196        37       -8015.314
         1       102        38      -0.7129627
         1       103        38      -3.4954007
         1       104        38      -2.2143147
         1       106        38      -2.0536597
         1       107        38       -4.087512
         1       108        38       -6.269791
         1       109        38      -7.3349557
         1       110        38      -4.9762144
         1       111        38       -4.460728
         1       112        38       -4.460728
         1       113        38       -4.107346
         1       114        38      -1.7113642
         1       115        38      -1.1937734
         1       124        38     -0.18638644
         1       125        38      -3.0482688
         1       126        38      -2.6779127
         1       127        38      -1.1787896
         1       128        38      -5.2453604
         1       129        38      -12.130455
         1       130        38      -12.130455
         1       131        38      -12.130455
         1       132        38      -3.8347063
         1       134        38      -2.1940784
         1       135        38      -2.5106523
         1       136        38   -0.0054626632
         1       141        38       -5.793129
         1       142        38      -12.585697
         1       143        38       -4.838155
         1       147        38      -26.999926
         1       148        38      -27.033886
         1       159        38     -0.43139538
         1       160        38      -32.620937
         1       161        38       -27.12833
         1       167        38      -4.0579243
         1       168        38       -6.395582
         1       169        38      -1.3443451
         1       185        38      -3.1820095
         1       186        38       -16.95376
         1       187        38      -11.138337
         1       195        38       -29328.66
         1       196        38       -26772.83
         1       106        39       -3.680021
         1       107        39       -7.334984
         1       108        39       -7.334984
         1       109        39       -7.334984
         1       110        39      -5.0004425
         1       111        39      -4.4607453
         1       112        39      -4.4607453
         1       113        39      -3.9131546
         1       124        39     -0.23381443
         1       125        39      -4.2993937
         1       126        39      -3.3979828
         1       128        39       -4.426888