# DRN package for  MODFLOW-NWT, generated by Flopy.
     54036         0 NOPRINT
     54036         0 # stress period 1
         1         1         1        1033.619        432000.0
         1         1         2        957.7143        432000.0
         1         1         3        880.1389        432000.0
         1         1         4        818.5714        432000.0
         1         1         5        839.9524        432000.0
         1         1         6        828.6389        432000.0
         1         1         7        893.7381        432000.0
         1         1         8        882.6905        432000.0
         1         1         9        958.5476        432000.0
         1         1        10         983.619        432000.0
         1         1        11        975.0476        432000.0
         1         1        12        999.1905        432000.0
         1         1        13       986.80554        432000.0
         1         1        14        871.2857        432000.0
         1         1        15        881.7551        432000.0
         1         1        16        978.7857        432000.0
         1         1        17         994.449        432000.0
         1         1        18        994.2653        432000.0
         1         1        19        982.9762        432000.0
         1         1        20        957.7755        432000.0
         1         1        21       862.61224        432000.0
         1         1        22        745.7857        432000.0
         1         1        23        661.7551        432000.0
         1         1        24        636.3571        432000.0
         1         1        25        622.6667        432000.0
         1         1        26        613.7619        432000.0
         1         1        27        601.7143        432000.0
         1         1        28       600.94446        432000.0
         1         1        29        611.3571        432000.0
         1         1        30        616.6667        432000.0
         1         1        31       653.19446        432000.0
         1         1        32        697.9048        432000.0
         1         1        33        818.9048        432000.0
         1         1        34        954.2381        432000.0
         1         1        35        915.6905        432000.0
         1         1        36        795.5476        432000.0
         1         1        37        800.1667        432000.0
         1         1        38           791.0        432000.0
         1         1        39       746.89795        432000.0
         1         1        40        692.7959        432000.0
         1         1        41        626.9048        432000.0
         1         1        42        615.0204        432000.0
         1         1        43       644.30615        432000.0
         1         1        44        674.4286        432000.0
         1         1        45        611.7551        432000.0
         1         1        46        581.7347        432000.0
         1         1        47        573.4286        432000.0
         1         1        48       580.38776        432000.0
         1         1        49        593.4286        432000.0
         1         1        50        596.1389        432000.0
         1         1        51        591.5714        432000.0
         1         1        52         601.881        432000.0
         1         1        53        617.4167        432000.0
         1         1        54        681.0714        432000.0
         1         1        55        684.8571        432000.0
         1         1        56          643.25        432000.0
         1         1        57        638.9524        432000.0
         1         1        58        635.8333        432000.0
         1         1        59        668.1667        432000.0
         1         1        60        675.0714        432000.0
         1         1        61        691.6905        432000.0
         1         1        62        711.1667        432000.0
         1         1        63        693.5278        432000.0
         1         1        64         714.119        432000.0
         1         1        65        740.1429        432000.0
         1         1        66          687.25        432000.0
         1         1        67        694.2245        432000.0
         1         1        68       730.32654        432000.0
         1         1        69        772.3333        432000.0
         1         1        70        738.9184        432000.0
         1         1        71       703.32654        432000.0
         1         1        72        720.2381        432000.0
         1         1        73       753.61224        432000.0
         1         1        74         723.449        432000.0
         1         1        75        720.2143        432000.0
         1         1        76        744.4286        432000.0
         1         1        77        710.9388        432000.0
         1         1        78        730.3889        432000.0
         1         1        79        739.0238        432000.0
         1         1        80        723.3333        432000.0
         1         1        81        726.4722        432000.0
         1         1        82        723.2381        432000.0
         1         1        83        687.8571        432000.0
         1         1        84         712.881        432000.0
         1         1        85         676.619        432000.0
         1         1        86        676.0238        432000.0
         1         1        87        657.8333        432000.0
         1         1        88       671.19446        432000.0
         1         1        89        666.5714        432000.0
         1         1        90        660.9048        432000.0
         1         1        91        692.7778        432000.0
         1         1        92        723.3095        432000.0
         1         1        93        705.7143        432000.0
         1         1        94        732.6389        432000.0
         1         1        95        728.9048        432000.0
         1         1        96        662.9762        432000.0
         1         1        97        639.7778        432000.0
         1         1        98        639.7755        432000.0
         1         1        99       642.83673        432000.0
         1         1       100        659.7619        432000.0
         1         1       101        680.7755        432000.0
         1         1       102       759.30615        432000.0
         1         1       103        896.0238        432000.0
         1         1       104       904.81635        432000.0
         1         1       105       894.87756        432000.0
         1         1       106       903.87756        432000.0
         1         1       107        868.7959        432000.0
         1         1       108       857.16327        432000.0
         1         1       109       809.53064        432000.0
         1         1       110           722.5        432000.0
         1         1       111           667.0        432000.0
         1         1       112        653.5714        432000.0
         1         1       113        663.3889        432000.0
         1         1       114        657.4762        432000.0
         1         1       115        659.7143        432000.0
         1         1       116        669.8889        432000.0
         1         1       117        694.0714        432000.0
         1         1       118         694.381        432000.0
         1         1       119        742.1111        432000.0
         1         1       120        724.6667        432000.0
         1         1       121           690.0        432000.0
         1         1       122        659.5833        432000.0
         1         1       123        656.6667        432000.0
         1         1       124        653.4286        432000.0
         1         1       125       653.80554        432000.0
         1         1       126        645.6429        432000.0
         1         1       127         651.381        432000.0
         1         1       128       656.80554        432000.0
         1         1       129        650.9762        432000.0
         1         1       130        652.6429        432000.0
         1         1       131        662.2143        432000.0
         1         1       132        675.9048        432000.0
         1         1       133       719.59186        432000.0
         1         1       134       778.10205        432000.0
         1         1       135        814.2619        432000.0
         1         1       136        785.0612        432000.0
         1         1       137        754.5714        432000.0
         1         1       138         755.619        432000.0
         1         1       139       741.61224        432000.0
         1         1       140        700.2449        432000.0
         1         1       141        707.2619        432000.0
         1         1       142        725.1429        432000.0
         1         1       143        742.3674        432000.0
         1         1       144        739.7381        432000.0
         1         1       145       741.16327        432000.0
         1         1       146       743.10205        432000.0
         1         1       147        750.7857        432000.0
         1         1       148        760.9184        432000.0
         1         1       149       744.59186        432000.0
         1         1       150        738.9167        432000.0
         1         1       151        744.7143        432000.0
         1         1       152         748.119        432000.0
         1         1       153        739.8333        432000.0
         1         1       154        733.8095        432000.0
         1         1       155         736.381        432000.0
         1         1       156        733.7857        432000.0
         1         1       157        759.6111        432000.0
         1         1       158        736.1429        432000.0
         1         1       159        719.5714        432000.0
         1         1       160       711.80554        432000.0
         1         1       161        701.0714        432000.0
         1         1       162        693.2381        432000.0
         1         1       163        704.1389        432000.0
         1         1       164        705.7857        432000.0
         1         1       165        687.8095        432000.0
         1         1       166        648.0833        432000.0
         1         1       167        653.0476        432000.0
         1         1       168        646.9524        432000.0
         1         1       169        654.7222        432000.0
         1         1       170         658.881        432000.0
         1         1       171        653.5952        432000.0
         1         1       172        629.3889        432000.0
         1         1       173        608.9286        432000.0
         1         1       174        611.9286        432000.0
         1         1       175        634.8611        432000.0
         1         1       176        623.5476        432000.0
         1         1       177        616.7857        432000.0
         1         1       178         597.449        432000.0
         1         1       179        588.4286        432000.0
         1         1       180        579.2041        432000.0
         1         1       181        570.3469        432000.0
         1         1       182        563.7143        432000.0
         1         1       183        561.5102        432000.0
         1         1       184        560.4898        432000.0
         1         1       185        558.7619        432000.0
         1         1       186        555.6531        432000.0
         1         1       187        555.6531        432000.0
         1         1       188         555.619        432000.0
         1         1       189         554.551        432000.0
         1         1       190        558.0204        432000.0
         1         1       191        556.2381        432000.0
         1         1       192       557.69385        432000.0
         1         1       193       552.16327        432000.0
         1         1       194        550.3333        432000.0
         1         1       195         556.449        432000.0
         1         1       196        560.7755        432000.0
         1         1       197        561.5238        432000.0
         1         1       198        555.1429        432000.0
         1         1       199           556.0        432000.0
         1         1       200       557.38776        432000.0
         1         1       201       567.95917        432000.0
         1         1       202        577.4524        432000.0
         1         1       203        572.9286        432000.0
         1         1       204        601.4722        432000.0
         1         1       205        633.4286        432000.0
         1         1       206        620.5714        432000.0
         1         1       207       584.94446        432000.0
         1         1       208        564.7143        432000.0
         1         1       209           562.0        432000.0
         1         1       210        559.6667        432000.0
         1         1       211        552.2619        432000.0
         1         1       212        550.9524        432000.0
         1         1       213        554.3333        432000.0
         1         1       214        545.7619        432000.0
         1         1       215         539.881        432000.0
         1         1       216        542.1111        432000.0
         1         1       217         545.881        432000.0
         1         1       218        545.8333        432000.0
         1         1       219        537.5278        432000.0
         1         1       220        549.9524        432000.0
         1         1       221        564.6429        432000.0
         1         1       222        541.0238        432000.0
         1         1       223        532.4286        432000.0
         1         1       224        529.8571        432000.0
         1         1       225        523.7143        432000.0
         1         1       226       519.19446        432000.0
         1         1       227         518.381        432000.0
         1         1       228        523.6667        432000.0
         1         1       229        529.4167        432000.0
         1         1       230        531.7143        432000.0
         1         1       231         527.381        432000.0
         1         1       232        523.8889        432000.0
         1         1       233        523.9048        432000.0
         1         1       234        521.4286        432000.0
         1         1       235       520.44446        432000.0
         1         1       236        514.7857        432000.0
         1         1       237        512.5714        432000.0
         1         1       238        513.1667        432000.0
         1         1       239       511.88095        432000.0
         1         1       240        512.1429        432000.0
         1         1       241        517.2778        432000.0
         1         1       242        521.5952        432000.0
         1         1       243        527.6667        432000.0
         1         1       244        526.5833        432000.0
         1         1       245        518.7381        432000.0
         1         1       246       510.61905        432000.0
         1         1       247       507.57144        432000.0
         1         1       248       506.19446        432000.0
         1         1       249       504.61224        432000.0
         1         1       250       503.14285        432000.0
         1         1       251       503.35715        432000.0
         1         1       252       499.69388        432000.0
         1         1       253       503.08163        432000.0
         1         1       254       502.07144        432000.0
         1         1       255       507.40817        432000.0
         1         1       256       514.67346        432000.0
         1         1       257        522.1667        432000.0
         1         1       258        526.8571        432000.0
         1         1       259           529.0        432000.0
         1         1       260        521.0476        432000.0
         1         1       261        518.2857        432000.0
         1         1       262       511.89795        432000.0
         1         1       263        505.1905        432000.0
         1         1       264       501.93878        432000.0
         1         1       265        500.5102        432000.0
         1         1       266       501.42856        432000.0
         1         1       267       505.73468        432000.0
         1         1       268         518.551        432000.0
         1         1       269        517.7551        432000.0
         1         1       270        513.9762        432000.0
         1         1       271       516.81635        432000.0
         1         1       272        525.5714        432000.0
         1         1       273        530.4048        432000.0
         1         1       274        533.9388        432000.0
         1         1       275        535.7755        432000.0
         1         1       276         533.881        432000.0
         1         1       277        533.9796        432000.0
         1         1       278        529.7143        432000.0
         1         1       279        530.4048        432000.0
         1         1       280       529.53064        432000.0
         1         1       281        525.8571        432000.0
         1         1       282        521.6667        432000.0
         1         1       283       518.16327        432000.0
         1         1       284       515.46936        432000.0
         1         1       285        515.2857        432000.0
         1         1       286        517.4286        432000.0
         1         1       287        520.7143        432000.0
         1         1       288        525.2381        432000.0
         1         1       289        528.4898        432000.0
         1         1       290         530.551        432000.0
         1         1       291           533.0        432000.0
         1         1       292         538.619        432000.0
         1         1       293        542.2245        432000.0
         1         1       294         541.551        432000.0
         1         1       295        545.5476        432000.0
         1         1       296       547.53064        432000.0
         1         1       297        550.4898        432000.0
         1         1       298         554.119        432000.0
         1         1       299       552.69385        432000.0
         1         1       300       555.81635        432000.0
         1         1       301        559.5238        432000.0
         1         1       302        561.7959        432000.0
         1         1       303         563.449        432000.0
         1         1       304        566.9048        432000.0
         1         1       305       562.81635        432000.0
         1         1       306        558.7959        432000.0
         1         1       307        557.9524        432000.0
         1         1       308        562.4286        432000.0
         1         1       309        571.2041        432000.0
         1         1       310        578.5476        432000.0
         1         1       311       586.81635        432000.0
         1         1       312        610.5714        432000.0
         1         1       313         612.449        432000.0
         1         1       314        628.9048        432000.0
         1         1       315        620.9184        432000.0
         1         1       316       601.69385        432000.0
         1         1       317        599.5476        432000.0
         1         1       318       595.95917        432000.0
         1         1       319        608.7959        432000.0
         1         1       320        608.8571        432000.0
         1         1       321       621.81635        432000.0
         1         1       322        610.4898        432000.0
         1         1       323        596.8333        432000.0
         1         1       324        594.9184        432000.0
         1         1       325       594.69385        432000.0
         1         1       326        591.9762        432000.0
         1         1       327        593.4286        432000.0
         1         1       328       601.04083        432000.0
         1         1       329           603.5        432000.0
         1         1       330       601.30615        432000.0
         1         1       331       590.83673        432000.0
         1         1       332        580.2857        432000.0
         1         1       333        573.5714        432000.0
         1         1       334        570.2041        432000.0
         1         1       335        570.5102        432000.0
         1         1       336        576.1905        432000.0
         1         1       337        582.7551        432000.0
         1         1       338        577.2653        432000.0
         1         1       339        577.9524        432000.0
         1         1       340        575.2245        432000.0
         1         1       341        565.5714        432000.0
         1         1       342        560.2619        432000.0
         1         2         1       1001.5102        432000.0
         1         2         2         968.551        432000.0
         1         2         3       980.81635        432000.0
         1         2         4       952.04083        432000.0
         1         2         5       967.83673        432000.0
         1         2         6        989.6326        432000.0
         1         2         7       1015.7347        432000.0
         1         2         8      1000.61224        432000.0
         1         2         9        983.2041        432000.0
         1         2        10       972.55554        432000.0
         1         2        11         952.881        432000.0
         1         2        12        973.0714        432000.0
         1         2        13        904.4722        432000.0
         1         2        14        774.3333        432000.0
         1         2        15        746.0952        432000.0
         1         2        16        907.8333        432000.0
         1         2        17        892.7143        432000.0
         1         2        18        960.4286        432000.0
         1         2        19        963.6111        432000.0
         1         2        20           946.5        432000.0
         1         2        21        818.5238        432000.0
         1         2        22        713.9167        432000.0
         1         2        23        675.9048        432000.0
         1         2        24        688.6667        432000.0
         1         2        25        680.2381        432000.0
         1         2        26           683.0        432000.0
         1         2        27       634.59186        432000.0
         1         2        28        608.7381        432000.0
         1         2        29       596.46936        432000.0
         1         2        30       601.59186        432000.0
         1         2        31        626.9388        432000.0
         1         2        32        690.2041        432000.0
         1         2        33       766.18365        432000.0
         1         2        34         897.449        432000.0
         1         2        35        888.3611        432000.0
         1         2        36        751.2619        432000.0
         1         2        37        754.9762        432000.0
         1         2        38          736.25        432000.0
         1         2        39        697.6429        432000.0
         1         2        40        645.4286        432000.0
         1         2        41        620.7778        432000.0
         1         2        42        602.5952        432000.0
         1         2        43        602.4286        432000.0
         1         2        44       642.55554        432000.0
         1         2        45        608.5952        432000.0
         1         2        46        577.3571        432000.0
         1         2        47        574.2778        432000.0
         1         2        48        597.7143        432000.0
         1         2        49        596.2619        432000.0
         1         2        50        613.3611        432000.0
         1         2        51       611.16327        432000.0
         1         2        52       628.30615        432000.0
         1         2        53        648.5238        432000.0
         1         2        54        713.2041        432000.0
         1         2        55       704.89795        432000.0
         1         2        56        698.1429        432000.0
         1         2        57        684.4898        432000.0
         1         2        58        648.9796        432000.0
         1         2        59         670.551        432000.0
         1         2        60        724.6667        432000.0
         1         2        61        743.9796        432000.0
         1         2        62        766.9762        432000.0
         1         2        63          738.75        432000.0
         1         2        64        755.8095        432000.0
         1         2        65        734.3333        432000.0
         1         2        66       707.69446        432000.0
         1         2        67        726.6667        432000.0
         1         2        68         736.619        432000.0
         1         2        69       787.55554        432000.0
         1         2        70        729.5476        432000.0
         1         2        71        733.9524        432000.0
         1         2        72       727.80554        432000.0
         1         2        73        803.3571        432000.0
         1         2        74        742.8095        432000.0
         1         2        75        736.4167        432000.0
         1         2        76        768.6429        432000.0
         1         2        77        771.1667        432000.0
         1         2        78       743.55554        432000.0
         1         2        79        755.4286        432000.0
         1         2        80       750.10205        432000.0
         1         2        81        770.2857        432000.0
         1         2        82       768.53064        432000.0
         1         2        83       703.46936        432000.0
         1         2        84        719.7347        432000.0
         1         2        85         687.881        432000.0
         1         2        86        701.0612        432000.0
         1         2        87       688.40814        432000.0
         1         2        88        707.6905        432000.0
         1         2        89        723.3469        432000.0
         1         2        90        700.5714        432000.0
         1         2        91        734.1389        432000.0
         1         2        92         720.619        432000.0
         1         2        93         689.619        432000.0
         1         2        94        689.0833        432000.0
         1         2        95        667.4524        432000.0
         1         2        96        652.2143        432000.0
         1         2        97       660.19446        432000.0
         1         2        98        687.0952        432000.0
         1         2        99        660.2857        432000.0
         1         2       100           669.0        432000.0
         1         2       101        720.7857        432000.0
         1         2       102        832.7143        432000.0
         1         2       103        863.8889        432000.0
         1         2       104        854.5952        432000.0
         1         2       105        853.9286        432000.0
         1         2       106        856.2143        432000.0
         1         2       107        869.8889        432000.0
         1         2       108           915.5        432000.0
         1         2       109        862.6667        432000.0
         1         2       110        731.4722        432000.0
         1         2       111        684.7857        432000.0
         1         2       112        680.6531        432000.0
         1         2       113        702.8571        432000.0
         1         2       114        685.6531        432000.0
         1         2       115       705.18365        432000.0
         1         2       116        724.4048        432000.0
         1         2       117        744.1429        432000.0
         1         2       118        762.0612        432000.0
         1         2       119        802.7619        432000.0
         1         2       120       784.38776        432000.0
         1         2       121       703.89795        432000.0
         1         2       122        675.8333        432000.0
         1         2       123       697.38776        432000.0
         1         2       124        683.9796        432000.0
         1         2       125        689.6905        432000.0
         1         2       126        662.9048        432000.0
         1         2       127        673.2381        432000.0
         1         2       128        712.4286        432000.0
         1         2       129        726.1429        432000.0
         1         2       130        728.7619        432000.0
         1         2       131        717.0952        432000.0
         1         2       132       714.94446        432000.0