# DRN package for  MODFLOW-NWT, generated by Flopy.
     54036         0 NOPRINT
     54036         0 # stress period 1
         1         1         1       1033.5691        980000.1
         1         1         2        957.6643        980000.1
         1         1         3       880.08887        980000.1
         1         1         4        818.5214        980000.1
         1         1         5        839.9024        980000.1
         1         1         6       828.58887        980000.1
         1         1         7        893.6881        980000.1
         1         1         8        882.6405        980000.1
         1         1         9        958.4976        980000.1
         1         1        10       983.56903        980000.1
         1         1        11        974.9976        980000.1
         1         1        12        999.1405        980000.1
         1         1        13       986.75555        980000.1
         1         1        14        871.2357        980000.1
         1         1        15        881.7051        980000.1
         1         1        16        978.7357        980000.1
         1         1        17         994.399        980000.1
         1         1        18       994.21533        980000.1
         1         1        19        982.9262        980000.1
         1         1        20        957.7255        980000.1
         1         1        21       862.56226        980000.1
         1         1        22        745.7357        980000.1
         1         1        23        661.7051        980000.1
         1         1        24        636.3071        980000.1
         1         1        25       622.61664        980000.1
         1         1        26        613.7119        980000.1
         1         1        27        601.6643        980000.1
         1         1        28        600.8945        980000.1
         1         1        29        611.3071        980000.1
         1         1        30       616.61664        980000.1
         1         1        31        653.1445        980000.1
         1         1        32       697.85474        980000.1
         1         1        33       818.85474        980000.1
         1         1        34        954.1881        980000.1
         1         1        35        915.6405        980000.1
         1         1        36        795.4976        980000.1
         1         1        37       800.11664        980000.1
         1         1        38          790.95        980000.1
         1         1        39       746.84796        980000.1
         1         1        40        692.7459        980000.1
         1         1        41       626.85474        980000.1
         1         1        42        614.9704        980000.1
         1         1        43        644.2561        980000.1
         1         1        44        674.3786        980000.1
         1         1        45        611.7051        980000.1
         1         1        46        581.6847        980000.1
         1         1        47        573.3786        980000.1
         1         1        48       580.33777        980000.1
         1         1        49        593.3786        980000.1
         1         1        50       596.08887        980000.1
         1         1        51        591.5214        980000.1
         1         1        52       601.83093        980000.1
         1         1        53       617.36664        980000.1
         1         1        54        681.0214        980000.1
         1         1        55        684.8071        980000.1
         1         1        56           643.2        980000.1
         1         1        57        638.9024        980000.1
         1         1        58        635.7833        980000.1
         1         1        59       668.11664        980000.1
         1         1        60        675.0214        980000.1
         1         1        61        691.6405        980000.1
         1         1        62       711.11664        980000.1
         1         1        63        693.4778        980000.1
         1         1        64       714.06903        980000.1
         1         1        65       740.09283        980000.1
         1         1        66           687.2        980000.1
         1         1        67        694.1745        980000.1
         1         1        68       730.27655        980000.1
         1         1        69        772.2833        980000.1
         1         1        70       738.86835        980000.1
         1         1        71       703.27655        980000.1
         1         1        72        720.1881        980000.1
         1         1        73       753.56226        980000.1
         1         1        74         723.399        980000.1
         1         1        75        720.1643        980000.1
         1         1        76        744.3786        980000.1
         1         1        77        710.8888        980000.1
         1         1        78       730.33887        980000.1
         1         1        79        738.9738        980000.1
         1         1        80        723.2833        980000.1
         1         1        81       726.42224        980000.1
         1         1        82        723.1881        980000.1
         1         1        83        687.8071        980000.1
         1         1        84       712.83093        980000.1
         1         1        85       676.56903        980000.1
         1         1        86        675.9738        980000.1
         1         1        87        657.7833        980000.1
         1         1        88        671.1445        980000.1
         1         1        89        666.5214        980000.1
         1         1        90       660.85474        980000.1
         1         1        91        692.7278        980000.1
         1         1        92        723.2595        980000.1
         1         1        93        705.6643        980000.1
         1         1        94       732.58887        980000.1
         1         1        95       728.85474        980000.1
         1         1        96        662.9262        980000.1
         1         1        97        639.7278        980000.1
         1         1        98        639.7255        980000.1
         1         1        99       642.78674        980000.1
         1         1       100        659.7119        980000.1
         1         1       101        680.7255        980000.1
         1         1       102        759.2561        980000.1
         1         1       103        895.9738        980000.1
         1         1       104        904.7663        980000.1
         1         1       105        894.8276        980000.1
         1         1       106        903.8276        980000.1
         1         1       107        868.7459        980000.1
         1         1       108        857.1133        980000.1
         1         1       109        809.4806        980000.1
         1         1       110          722.45        980000.1
         1         1       111          666.95        980000.1
         1         1       112        653.5214        980000.1
         1         1       113       663.33887        980000.1
         1         1       114        657.4262        980000.1
         1         1       115        659.6643        980000.1
         1         1       116       669.83887        980000.1
         1         1       117        694.0214        980000.1
         1         1       118       694.33093        980000.1
         1         1       119        742.0611        980000.1
         1         1       120       724.61664        980000.1
         1         1       121          689.95        980000.1
         1         1       122        659.5333        980000.1
         1         1       123       656.61664        980000.1
         1         1       124        653.3786        980000.1
         1         1       125       653.75555        980000.1
         1         1       126       645.59283        980000.1
         1         1       127       651.33093        980000.1
         1         1       128       656.75555        980000.1
         1         1       129        650.9262        980000.1
         1         1       130       652.59283        980000.1
         1         1       131        662.1643        980000.1
         1         1       132       675.85474        980000.1
         1         1       133        719.5418        980000.1
         1         1       134       778.05206        980000.1
         1         1       135        814.2119        980000.1
         1         1       136        785.0112        980000.1
         1         1       137        754.5214        980000.1
         1         1       138       755.56903        980000.1
         1         1       139       741.56226        980000.1
         1         1       140        700.1949        980000.1
         1         1       141        707.2119        980000.1
         1         1       142       725.09283        980000.1
         1         1       143        742.3173        980000.1
         1         1       144        739.6881        980000.1
         1         1       145        741.1133        980000.1
         1         1       146       743.05206        980000.1
         1         1       147        750.7357        980000.1
         1         1       148       760.86835        980000.1
         1         1       149        744.5418        980000.1
         1         1       150       738.86664        980000.1
         1         1       151        744.6643        980000.1
         1         1       152       748.06903        980000.1
         1         1       153        739.7833        980000.1
         1         1       154        733.7595        980000.1
         1         1       155       736.33093        980000.1
         1         1       156        733.7357        980000.1
         1         1       157        759.5611        980000.1
         1         1       158       736.09283        980000.1
         1         1       159        719.5214        980000.1
         1         1       160       711.75555        980000.1
         1         1       161        701.0214        980000.1
         1         1       162        693.1881        980000.1
         1         1       163       704.08887        980000.1
         1         1       164        705.7357        980000.1
         1         1       165        687.7595        980000.1
         1         1       166        648.0333        980000.1
         1         1       167        652.9976        980000.1
         1         1       168        646.9024        980000.1
         1         1       169       654.67224        980000.1
         1         1       170       658.83093        980000.1
         1         1       171        653.5452        980000.1
         1         1       172       629.33887        980000.1
         1         1       173        608.8786        980000.1
         1         1       174        611.8786        980000.1
         1         1       175        634.8111        980000.1
         1         1       176        623.4976        980000.1
         1         1       177        616.7357        980000.1
         1         1       178         597.399        980000.1
         1         1       179        588.3786        980000.1
         1         1       180       579.15405        980000.1
         1         1       181       570.29694        980000.1
         1         1       182        563.6643        980000.1
         1         1       183        561.4602        980000.1
         1         1       184        560.4398        980000.1
         1         1       185        558.7119        980000.1
         1         1       186        555.6031        980000.1
         1         1       187        555.6031        980000.1
         1         1       188       555.56903        980000.1
         1         1       189       554.50104        980000.1
         1         1       190        557.9704        980000.1
         1         1       191        556.1881        980000.1
         1         1       192       557.64386        980000.1
         1         1       193        552.1133        980000.1
         1         1       194        550.2833        980000.1
         1         1       195         556.399        980000.1
         1         1       196        560.7255        980000.1
         1         1       197        561.4738        980000.1
         1         1       198       555.09283        980000.1
         1         1       199          555.95        980000.1
         1         1       200       557.33777        980000.1
         1         1       201        567.9092        980000.1
         1         1       202        577.4024        980000.1
         1         1       203        572.8786        980000.1
         1         1       204       601.42224        980000.1
         1         1       205        633.3786        980000.1
         1         1       206        620.5214        980000.1
         1         1       207        584.8945        980000.1
         1         1       208        564.6643        980000.1
         1         1       209          561.95        980000.1
         1         1       210       559.61664        980000.1
         1         1       211        552.2119        980000.1
         1         1       212        550.9024        980000.1
         1         1       213        554.2833        980000.1
         1         1       214        545.7119        980000.1
         1         1       215       539.83093        980000.1
         1         1       216        542.0611        980000.1
         1         1       217       545.83093        980000.1
         1         1       218        545.7833        980000.1
         1         1       219        537.4778        980000.1
         1         1       220        549.9024        980000.1
         1         1       221       564.59283        980000.1
         1         1       222        540.9738        980000.1
         1         1       223        532.3786        980000.1
         1         1       224        529.8071        980000.1
         1         1       225        523.6643        980000.1
         1         1       226        519.1445        980000.1
         1         1       227       518.33093        980000.1
         1         1       228       523.61664        980000.1
         1         1       229       529.36664        980000.1
         1         1       230        531.6643        980000.1
         1         1       231       527.33093        980000.1
         1         1       232       523.83887        980000.1
         1         1       233       523.85474        980000.1
         1         1       234        521.3786        980000.1
         1         1       235        520.3945        980000.1
         1         1       236        514.7357        980000.1
         1         1       237        512.5214        980000.1
         1         1       238       513.11664        980000.1
         1         1       239       511.83096        980000.1
         1         1       240       512.09283        980000.1
         1         1       241        517.2278        980000.1
         1         1       242        521.5452        980000.1
         1         1       243       527.61664        980000.1
         1         1       244        526.5333        980000.1
         1         1       245        518.6881        980000.1
         1         1       246       510.56906        980000.1
         1         1       247       507.52142        980000.1
         1         1       248       506.14444        980000.1
         1         1       249       504.56226        980000.1
         1         1       250       503.09286        980000.1
         1         1       251       503.30713        980000.1
         1         1       252        499.6439        980000.1
         1         1       253       503.03165        980000.1
         1         1       254       502.02142        980000.1
         1         1       255       507.35815        980000.1
         1         1       256        514.6235        980000.1
         1         1       257       522.11664        980000.1
         1         1       258        526.8071        980000.1
         1         1       259          528.95        980000.1
         1         1       260        520.9976        980000.1
         1         1       261        518.2357        980000.1
         1         1       262       511.84796        980000.1
         1         1       263       505.14047        980000.1
         1         1       264       501.88876        980000.1
         1         1       265        500.4602        980000.1
         1         1       266       501.37857        980000.1
         1         1       267        505.6847        980000.1
         1         1       268       518.50104        980000.1
         1         1       269        517.7051        980000.1
         1         1       270        513.9262        980000.1
         1         1       271        516.7663        980000.1
         1         1       272        525.5214        980000.1
         1         1       273       530.35474        980000.1
         1         1       274        533.8888        980000.1
         1         1       275        535.7255        980000.1
         1         1       276       533.83093        980000.1
         1         1       277       533.92957        980000.1
         1         1       278        529.6643        980000.1
         1         1       279       530.35474        980000.1
         1         1       280        529.4806        980000.1
         1         1       281        525.8071        980000.1
         1         1       282       521.61664        980000.1
         1         1       283        518.1133        980000.1
         1         1       284        515.4194        980000.1
         1         1       285        515.2357        980000.1
         1         1       286        517.3786        980000.1
         1         1       287        520.6643        980000.1
         1         1       288        525.1881        980000.1
         1         1       289        528.4398        980000.1
         1         1       290       530.50104        980000.1
         1         1       291          532.95        980000.1
         1         1       292       538.56903        980000.1
         1         1       293        542.1745        980000.1
         1         1       294       541.50104        980000.1
         1         1       295        545.4976        980000.1
         1         1       296        547.4806        980000.1
         1         1       297        550.4398        980000.1
         1         1       298       554.06903        980000.1
         1         1       299       552.64386        980000.1
         1         1       300        555.7663        980000.1
         1         1       301        559.4738        980000.1
         1         1       302        561.7459        980000.1
         1         1       303         563.399        980000.1
         1         1       304       566.85474        980000.1
         1         1       305        562.7663        980000.1
         1         1       306        558.7459        980000.1
         1         1       307        557.9024        980000.1
         1         1       308        562.3786        980000.1
         1         1       309       571.15405        980000.1
         1         1       310        578.4976        980000.1
         1         1       311        586.7663        980000.1
         1         1       312        610.5214        980000.1
         1         1       313         612.399        980000.1
         1         1       314       628.85474        980000.1
         1         1       315       620.86835        980000.1
         1         1       316       601.64386        980000.1
         1         1       317        599.4976        980000.1
         1         1       318        595.9092        980000.1
         1         1       319        608.7459        980000.1
         1         1       320        608.8071        980000.1
         1         1       321        621.7663        980000.1
         1         1       322        610.4398        980000.1
         1         1       323        596.7833        980000.1
         1         1       324       594.86835        980000.1
         1         1       325       594.64386        980000.1
         1         1       326        591.9262        980000.1
         1         1       327        593.3786        980000.1
         1         1       328       600.99084        980000.1
         1         1       329          603.45        980000.1
         1         1       330        601.2561        980000.1
         1         1       331       590.78674        980000.1
         1         1       332        580.2357        980000.1
         1         1       333        573.5214        980000.1
         1         1       334       570.15405        980000.1
         1         1       335        570.4602        980000.1
         1         1       336        576.1405        980000.1
         1         1       337        582.7051        980000.1
         1         1       338       577.21533        980000.1
         1         1       339        577.9024        980000.1
         1         1       340        575.1745        980000.1
         1         1       341        565.5214        980000.1
         1         1       342        560.2119        980000.1
         1         2         1       1001.4602        980000.1
         1         2         2       968.50104        980000.1
         1         2         3        980.7663        980000.1
         1         2         4       951.99084        980000.1
         1         2         5       967.78674        980000.1
         1         2         6       989.58264        980000.1
         1         2         7       1015.6847        980000.1
         1         2         8      1000.56226        980000.1
         1         2         9       983.15405        980000.1
         1         2        10       972.50555        980000.1
         1         2        11       952.83093        980000.1
         1         2        12        973.0214        980000.1
         1         2        13       904.42224        980000.1
         1         2        14        774.2833        980000.1
         1         2        15        746.0452        980000.1
         1         2        16        907.7833        980000.1
         1         2        17        892.6643        980000.1
         1         2        18        960.3786        980000.1
         1         2        19        963.5611        980000.1
         1         2        20          946.45        980000.1
         1         2        21        818.4738        980000.1
         1         2        22       713.86664        980000.1
         1         2        23       675.85474        980000.1
         1         2        24       688.61664        980000.1
         1         2        25        680.1881        980000.1
         1         2        26          682.95        980000.1
         1         2        27        634.5418        980000.1
         1         2        28        608.6881        980000.1
         1         2        29        596.4194        980000.1
         1         2        30        601.5418        980000.1
         1         2        31        626.8888        980000.1
         1         2        32       690.15405        980000.1
         1         2        33       766.13367        980000.1
         1         2        34         897.399        980000.1
         1         2        35        888.3111        980000.1
         1         2        36        751.2119        980000.1
         1         2        37        754.9262        980000.1
         1         2        38           736.2        980000.1
         1         2        39       697.59283        980000.1
         1         2        40        645.3786        980000.1
         1         2        41        620.7278        980000.1
         1         2        42        602.5452        980000.1
         1         2        43        602.3786        980000.1
         1         2        44       642.50555        980000.1
         1         2        45        608.5452        980000.1
         1         2        46        577.3071        980000.1
         1         2        47        574.2278        980000.1
         1         2        48        597.6643        980000.1
         1         2        49        596.2119        980000.1
         1         2        50        613.3111        980000.1
         1         2        51        611.1133        980000.1
         1         2        52        628.2561        980000.1
         1         2        53        648.4738        980000.1
         1         2        54       713.15405        980000.1
         1         2        55       704.84796        980000.1
         1         2        56       698.09283        980000.1
         1         2        57        684.4398        980000.1
         1         2        58       648.92957        980000.1
         1         2        59       670.50104        980000.1
         1         2        60       724.61664        980000.1
         1         2        61       743.92957        980000.1
         1         2        62        766.9262        980000.1
         1         2        63           738.7        980000.1
         1         2        64        755.7595        980000.1
         1         2        65        734.2833        980000.1
         1         2        66        707.6445        980000.1
         1         2        67       726.61664        980000.1
         1         2        68       736.56903        980000.1
         1         2        69       787.50555        980000.1
         1         2        70        729.4976        980000.1
         1         2        71        733.9024        980000.1
         1         2        72       727.75555        980000.1
         1         2        73        803.3071        980000.1
         1         2        74        742.7595        980000.1
         1         2        75       736.36664        980000.1
         1         2        76       768.59283        980000.1
         1         2        77       771.11664        980000.1
         1         2        78       743.50555        980000.1
         1         2        79        755.3786        980000.1
         1         2        80       750.05206        980000.1
         1         2        81        770.2357        980000.1
         1         2        82        768.4806        980000.1
         1         2        83        703.4194        980000.1
         1         2        84        719.6847        980000.1
         1         2        85       687.83093        980000.1
         1         2        86        701.0112        980000.1
         1         2        87       688.35815        980000.1
         1         2        88        707.6405        980000.1
         1         2        89       723.29694        980000.1
         1         2        90        700.5214        980000.1
         1         2        91       734.08887        980000.1
         1         2        92       720.56903        980000.1
         1         2        93       689.56903        980000.1
         1         2        94        689.0333        980000.1
         1         2        95        667.4024        980000.1
         1         2        96        652.1643        980000.1
         1         2        97        660.1445        980000.1
         1         2        98        687.0452        980000.1
         1         2        99        660.2357        980000.1
         1         2       100          668.95        980000.1
         1         2       101        720.7357        980000.1
         1         2       102        832.6643        980000.1
         1         2       103       863.83887        980000.1
         1         2       104        854.5452        980000.1
         1         2       105        853.8786        980000.1
         1         2       106        856.1643        980000.1
         1         2       107       869.83887        980000.1
         1         2       108          915.45        980000.1
         1         2       109       862.61664        980000.1
         1         2       110       731.42224        980000.1
         1         2       111        684.7357        980000.1
         1         2       112        680.6031        980000.1
         1         2       113        702.8071        980000.1
         1         2       114        685.6031        980000.1
         1         2       115       705.13367        980000.1
         1         2       116       724.35474        980000.1
         1         2       117       744.09283        980000.1
         1         2       118        762.0112        980000.1
         1         2       119        802.7119        980000.1
         1         2       120       784.33777        980000.1
         1         2       121       703.84796        980000.1
         1         2       122        675.7833        980000.1
         1         2       123       697.33777        980000.1
         1         2       124       683.92957        980000.1
         1         2       125        689.6405        980000.1
         1         2       126       662.85474        980000.1
         1         2       127        673.1881        980000.1
         1         2       128        712.3786        980000.1
         1         2       129       726.09283        980000.1
         1         2       130        728.7119        980000.1
         1         2       131        717.0452        980000.1
         1         2       132        714.8945        980000.1