# Name file for MODFLOW-NWT, generated by Flopy version 3.2.6.
#xul:0; yul:636000; rotation:0; proj4_str:+init=EPSG:4326; units:meters; lenuni:2; length_multiplier:1.0 ;start_datetime:1-1-1970
LIST               2  C:/GitHub/FUSE/Modflow/output/Bhima_transient.list
DIS               11  C:/GitHub/FUSE/Modflow/output/Bhima_transient.dis 
BAS6              13  C:/GitHub/FUSE/Modflow/output/Bhima_transient.bas 
UPW               31  C:/GitHub/FUSE/Modflow/output/Bhima_transient.upw 
NWT               32  C:/GitHub/FUSE/Modflow/output/Bhima_transient.nwt 
DRN               21  C:/GitHub/FUSE/Modflow/output/Bhima_transient.drn 
WEL               20  C:/GitHub/FUSE/Modflow/output/Bhima_transient.wel 
RCH               19  C:/GitHub/FUSE/Modflow/output/Bhima_transient.rch 
OC                14  C:/GitHub/FUSE/Modflow/output/Bhima_transient.oc 
DATA(BINARY)      51  C:/GitHub/FUSE/Modflow/output/Bhima_transient.hds REPLACE
DATA              50  C:/GitHub/FUSE/Modflow/output/Bhima_transient.out 
