# WEL package for  MODFLOW-NWT, generated by Flopy.
     10012         0 
     10012         0 # stress period 1
         1         2       149      -318.42355
         1         3       105         -534.62
         1         3       106         -534.62
         1         4       136      -232.32874
         1         4       140      -232.32874
         1         4       142      -232.32874
         1         4       143      -232.32874
         1         4       145      -232.32874
         1         4       147      -232.32874
         1         4       149      -232.32874
         1         4       150      -232.32874
         1         4       152      -232.32874
         1         4       154      -180.42982
         1         4       156      -180.42982
         1         5       103      -534.64526
         1         5       105      -534.64526
         1         5       106      -534.64526
         1         5       108      -534.64526
         1         5       117      -534.64526
         1         5       119       -228.8374
         1         5       121       -228.8374
         1         5       122       -228.8374
         1         5       124       -228.8374
         1         5       126       -228.8374
         1         5       128       -228.8374
         1         5       129       -228.8374
         1         5       131       -228.8374
         1         5       133       -228.8374
         1         5       135       -228.8374
         1         5       136       -232.3397
         1         5       138       -232.3397
         1         5       140       -232.3397
         1         5       142       -232.3397
         1         5       143       -232.3397
         1         6       145       -232.3397
         1         6       147       -232.3397
         1         6       149       -232.3397
         1         6       150       -232.3397
         1         6       152       -232.3397
         1         6       154      -180.43835
         1         6       156      -180.43835
         1         7        78      -330.10703
         1         7        80      -330.10703
         1         7        82      -330.10703
         1         7        84      -296.51776
         1         7        85      -296.51776
         1         7        87      -296.51776
         1         7        89      -296.51776
         1         7        91      -296.51776
         1         7        92      -296.51776
         1         7        94      -296.51776
         1         7        96      -296.51776
         1         7        98      -296.51776
         1         7        99      -296.51776
         1         7       101       -534.6705
         1         7       103       -534.6705
         1         7       105       -534.6705
         1         7       106       -534.6705
         1         7       108       -534.6705
         1         7       110       -534.6705
         1         7       112       -534.6705
         1         7       113       -534.6705
         1         7       115       -534.6705
         1         7       117       -534.6705
         1         7       119       -228.8482
         1         7       120       -228.8482
         1         7       122       -228.8482
         1         7       124       -228.8482
         1         7       126       -228.8482
         1         7       128       -228.8482
         1         7       129       -228.8482
         1         7       131       -228.8482
         1         7       133       -228.8482
         1         7       135       -228.8482
         1         7       136       -232.3507
         1         7       138       -232.3507
         1         7       140       -232.3507
         1         7       142       -232.3507
         1         7       143       -232.3507
         1         7       145       -232.3507
         1         7       147       -232.3507
         1         7       149       -232.3507
         1         7       150       -232.3507
         1         7       152       -4632.014
         1         7       154      -3511.7346
         1         7       156      -180.44688
         1         7       157      -180.44688
         1         9        66       -330.1226
         1         9        68       -330.1226
         1         9        69       -330.1226
         1         9        71       -330.1226
         1         9        73       -330.1226
         1         9        75       -330.1226
         1         9        76       -330.1226
         1         9        78       -330.1226
         1         9        80       -330.1226
         1         9        82       -330.1226
         1         9        84      -296.53174
         1         9        85      -296.53174
         1         9        87      -296.53174
         1         9        89      -296.53174
         1         9        91      -296.53174
         1         9        92      -296.53174
         1         9        94      -296.53174
         1         9        96      -296.53174
         1         9        98      -296.53174
         1         9        99      -296.53174
         1         9       101      -534.69574
         1         9       103      -534.69574
         1         9       105      -534.69574
         1         9       106      -534.69574
         1         9       108      -534.69574
         1         9       110      -534.69574
         1         9       112      -534.69574
         1         9       113      -534.69574
         1         9       115      -534.69574
         1         9       117      -534.69574
         1         9       119      -228.85901
         1         9       120      -228.85901
         1         9       122      -228.85901
         1         9       124      -228.85901
         1         9       126      -228.85901
         1         9       128      -228.85901
         1         9       129      -228.85901
         1         9       131      -228.85901
         1         9       133      -228.85901
         1         9       135      -228.85901
         1         9       136      -232.36165
         1         9       138      -232.36165
         1         9       140      -232.36165
         1         9       142      -232.36165
         1         9       143      -232.36165
         1         9       145      -232.36165
         1         9       147      -232.36165
         1         9       149      -232.36165
         1         9       150      -232.36165
         1         9       152      -232.36165
         1         9       154       -180.4554
         1         9       156       -180.4554
         1         9       157       -180.4554
         1         9       159       -180.4554
         1        11        61      -283.67776
         1        11        62      -283.67776
         1        11        64      -283.67776
         1        11        66      -330.13818
         1        11        68      -330.13818
         1        11        69      -330.13818
         1        11        71      -330.13818
         1        11        73      -330.13818
         1        11        75      -330.13818
         1        11        76      -330.13818
         1        11        78      -330.13818
         1        11        80      -330.13818
         1        11        82      -330.13818
         1        11        83      -296.54575
         1        11        85      -296.54575
         1        11        87      -296.54575
         1        11        89      -296.54575
         1        11        91      -296.54575
         1        11        92      -296.54575
         1        11        94      -296.54575
         1        11        96      -296.54575
         1        11        98      -296.54575
         1        11        99      -296.54575
         1        11       101      -534.72095
         1        11       103      -534.72095
         1        11       105      -534.72095
         1        11       106      -534.72095
         1        11       108      -534.72095
         1        11       110      -534.72095
         1        11       112      -534.72095
         1        11       113      -534.72095
         1        11       115      -534.72095
         1        11       117      -534.72095
         1        11       119       -228.8698
         1        11       120       -228.8698
         1        11       122       -228.8698
         1        11       124       -228.8698
         1        11       126       -228.8698
         1        11       128       -228.8698
         1        11       129       -228.8698
         1        11       131       -228.8698
         1        11       133       -228.8698
         1        11       135       -228.8698
         1        11       136      -232.37262
         1        11       138      -232.37262
         1        11       140      -232.37262
         1        11       142      -232.37262
         1        11       143      -232.37262
         1        11       145      -232.37262
         1        11       147      -232.37262
         1        11       149      -232.37262
         1        11       150      -232.37262
         1        11       152      -232.37262
         1        11       154       -180.4639
         1        11       156       -180.4639
         1        11       157       -180.4639
         1        11       159       -180.4639
         1        11       161       -180.4639
         1        11       163       -180.4639
         1        11       164       -180.4639
         1        12        59      -283.69113
         1        12        61      -283.69113
         1        12        62      -283.69113
         1        12        64      -283.69113
         1        12        66      -330.15375
         1        12        68      -330.15375
         1        12        69      -330.15375
         1        12        71      -330.15375
         1        12        73      -330.15375
         1        13        75      -330.15375
         1        13        76      -330.15375
         1        13        78      -330.15375
         1        13        80      -330.15375
         1        13        82      -330.15375
         1        13        83      -296.55972
         1        13        85      -296.55972
         1        13        87      -296.55972
         1        13        89      -296.55972
         1        13        91      -296.55972
         1        13        92      -296.55972
         1        13        94      -296.55972
         1        13        96      -296.55972
         1        13        98      -296.55972
         1        13        99      -296.55972
         1        13       101      -534.74615
         1        13       103      -534.74615
         1        13       105      -534.74615
         1        13       106      -534.74615
         1        13       108      -534.74615
         1        13       110      -534.74615
         1        13       112      -534.74615
         1        13       113      -534.74615
         1        13       115      -534.74615
         1        13       117      -534.74615
         1        13       119       -228.8806
         1        13       120       -228.8806
         1        13       122       -228.8806
         1        13       124       -228.8806
         1        13       126      -86647.875
         1        13       128       -228.8806
         1        13       129       -228.8806
         1        13       131       -228.8806
         1        13       133       -228.8806
         1        13       135       -228.8806
         1        13       136      -232.38358
         1        13       138      -232.38358
         1        13       140      -232.38358
         1        13       142      -232.38358
         1        13       143      -232.38358
         1        13       145      -232.38358
         1        13       147      -232.38358
         1        13       149      -232.38358
         1        13       150      -232.38358
         1        13       152      -232.38358
         1        13       154      -180.47241
         1        13       156      -180.47241
         1        13       157      -180.47241
         1        13       159      -180.47241
         1        13       161      -180.47241
         1        13       163      -180.47241
         1        13       164      -180.47241
         1        14        55       -283.7045
         1        14        57       -283.7045
         1        14        59       -283.7045
         1        14        61       -283.7045
         1        14        62       -283.7045
         1        14        64       -283.7045
         1        14        66      -330.16928
         1        14        68      -330.16928
         1        14        69      -330.16928
         1        14        71      -330.16928
         1        14        73      -330.16928
         1        14        75      -330.16928
         1        14        76      -330.16928
         1        14        78      -330.16928
         1        14        80      -330.16928
         1        14        82      -330.16928
         1        14        83       -296.5737
         1        14        85       -296.5737
         1        14        87       -296.5737
         1        14        89       -296.5737
         1        14        91       -296.5737
         1        14        92       -296.5737
         1        14        94       -296.5737
         1        14        96       -296.5737
         1        14        98       -296.5737
         1        14        99       -296.5737
         1        15       101      -534.77136
         1        15       103      -534.77136
         1        15       105      -534.77136
         1        15       106      -534.77136
         1        15       108      -534.77136
         1        15       110      -534.77136
         1        15       112      -534.77136
         1        15       113      -534.77136
         1        15       115      -534.77136
         1        15       117      -534.77136
         1        15       119      -228.89137
         1        15       120      -228.89137
         1        15       122      -228.89137
         1        15       124      -228.89137
         1        15       126      -228.89137
         1        15       127      -228.89137
         1        15       129      -228.89137
         1        15       131      -228.89137
         1        15       133      -228.89137
         1        15       135      -228.89137
         1        15       136      -232.39452
         1        15       138      -232.39452
         1        15       140      -232.39452
         1        15       142      -232.39452
         1        15       143      -232.39452
         1        15       145      -232.39452
         1        15       147      -232.39452
         1        15       149      -232.39452
         1        15       150      -232.39452
         1        15       152      -232.39452
         1        15       154      -180.48091
         1        15       156      -180.48091
         1        15       157      -180.48091
         1        15       159      -180.48091
         1        15       161      -180.48091
         1        15       163      -180.48091
         1        15       164      -180.48091
         1        15       166      -180.48091
         1        16        48      -283.71786
         1        16        50      -283.71786
         1        16        52      -283.71786
         1        16        54      -283.71786
         1        16        55      -283.71786
         1        16        57      -283.71786
         1        16        59      -283.71786
         1        16        61      -283.71786
         1        16        62      -283.71786
         1        16        64      -283.71786
         1        16        66      -330.18488
         1        16        68      -330.18488
         1        16        69      -330.18488
         1        16        71      -330.18488
         1        16        73      -330.18488
         1        16        75      -330.18488
         1        16        76      -330.18488
         1        16        78      -330.18488
         1        16        80      -330.18488
         1        16        82      -330.18488
         1        16        83      -296.58768
         1        16        85      -296.58768
         1        16        87      -296.58768
         1        16        89      -296.58768
         1        16        91      -296.58768
         1        16        92      -296.58768
         1        16        94      -296.58768
         1        16        96      -296.58768
         1        16        98      -296.58768
         1        16        99      -296.58768
         1        16       101       -534.7966
         1        16       103       -534.7966
         1        16       105       -534.7966
         1        16       106       -534.7966
         1        16       108       -534.7966
         1        16       110       -534.7966
         1        16       112       -534.7966
         1        16       113       -534.7966
         1        16       115       -534.7966
         1        16       117       -534.7966
         1        16       119      -228.90218
         1        16       120      -228.90218
         1        16       122      -228.90218
         1        16       124      -228.90218
         1        16       126      -228.90218
         1        16       127      -228.90218
         1        16       129      -228.90218
         1        17       131      -228.90218
         1        17       133      -228.90218
         1        17       135      -228.90218
         1        17       136      -232.40547
         1        17       138      -232.40547
         1        17       140      -232.40547
         1        17       142      -232.40547
         1        17       143      -232.40547
         1        17       145      -232.40547
         1        17       147      -232.40547
         1        17       149      -232.40547
         1        17       150      -232.40547
         1        17       152      -232.40547
         1        17       154      -180.48943
         1        17       156      -180.48943
         1        17       157      -180.48943
         1        17       159      -180.48943
         1        17       161      -180.48943
         1        17       163      -180.48943
         1        17       164      -180.48943
         1        17       166      -180.48943
         1        17       168      -180.48943
         1        17       170      -180.48943
         1        17       172       -233.6181
         1        17       173       -233.6181
         1        17       175       -233.6181
         1        17       177       -233.6181
         1        17       187       -233.6181
         1        17       189      -236.56325
         1        18        48      -283.73123
         1        18        50      -283.73123
         1        18        52      -283.73123
         1        18        54      -283.73123
         1        18        55      -283.73123
         1        18        57      -283.73123
         1        18        59      -283.73123
         1        18        61      -283.73123
         1        18        62      -283.73123
         1        18        64      -283.73123
         1        18        66       -330.2004
         1        18        68       -330.2004
         1        18        69       -330.2004
         1        18        71       -330.2004
         1        18        73       -330.2004
         1        18        75       -330.2004
         1        18        76       -330.2004
         1        18        78       -330.2004
         1        18        80       -330.2004
         1        18        82       -330.2004
         1        18        83      -296.60165
         1        18        85      -296.60165
         1        18        87      -296.60165
         1        18        89      -296.60165
         1        18        90      -296.60165
         1        18        92      -296.60165
         1        18        94      -296.60165
         1        18        96      -296.60165
         1        18        98      -296.60165
         1        18        99      -296.60165
         1        18       101       -534.8217
         1        18       103       -534.8217
         1        18       105       -534.8217
         1        18       106       -534.8217
         1        18       108       -534.8217
         1        18       110       -534.8217
         1        18       112       -534.8217
         1        18       113       -534.8217
         1        18       115       -534.8217
         1        18       117       -534.8217
         1        18       119      -228.91295
         1        18       120      -228.91295
         1        18       122      -228.91295
         1        18       124      -228.91295
         1        18       126      -228.91295
         1        18       127      -228.91295
         1        18       129      -228.91295
         1        18       131      -228.91295
         1        18       133      -228.91295
         1        18       135      -228.91295
         1        18       136      -232.41641
         1        18       138      -232.41641
         1        18       140      -232.41641
         1        18       142      -232.41641
         1        18       143      -232.41641
         1        18       145      -232.41641
         1        18       147      -232.41641
         1        18       149      -232.41641
         1        18       150      -232.41641
         1        18       152      -232.41641
         1        18       154      -180.49792
         1        18       156      -180.49792
         1        18       157      -180.49792
         1        18       159      -180.49792
         1        18       161      -180.49792
         1        18       163      -180.49792
         1        18       164      -180.49792
         1        18       166      -2406.7905
         1        19       168      -180.49792
         1        19       170      -180.49792
         1        19       172       -233.6291
         1        19       173       -233.6291
         1        19       175       -233.6291
         1        19       177       -233.6291
         1        19       179       -233.6291
         1        19       180       -233.6291
         1        19       182       -233.6291
         1        19       184       -233.6291
         1        19       186       -233.6291
         1        19       187       -233.6291
         1        19       189      -236.57439
         1        19       191      -236.57439
         1        19       193      -236.57439
         1        19       194      -236.57439
         1        19       196      -236.57439
         1        20        27      -191.15668
         1        20        29      -191.15668
         1        20        31       -230.9155
         1        20        46       -230.9155
         1        20        48      -283.74457
         1        20        50      -283.74457
         1        20        52      -283.74457
         1        20        54      -283.74457
         1        20        55      -283.74457
         1        20        57      -283.74457
         1        20        59      -283.74457
         1        20        61      -283.74457
         1        20        62      -283.74457
         1        20        64      -283.74457
         1        20        66      -330.21594
         1        20        68      -330.21594
         1        20        69      -330.21594
         1        20        71      -330.21594
         1        20        73      -330.21594
         1        20        75      -330.21594
         1        20        76      -330.21594
         1        20        78      -330.21594
         1        20        80      -330.21594
         1        20        82      -330.21594
         1        20        83      -296.61557
         1        20        85      -296.61557
         1        20        87      -296.61557
         1        20        89      -296.61557
         1        20        90      -296.61557
         1        20        92      -296.61557
         1        20        94      -296.61557
         1        20        96      -296.61557
         1        20        98      -296.61557
         1        20        99      -296.61557
         1        20       101      -534.84686
         1        20       103      -534.84686
         1        20       105      -534.84686
         1        20       106      -534.84686
         1        20       108      -534.84686
         1        20       110      -534.84686
         1        20       112      -534.84686
         1        20       113      -534.84686
         1        20       115      -534.84686
         1        20       117      -534.84686
         1        20       119       -228.9237
         1        20       120       -228.9237
         1        20       122       -228.9237
         1        20       124       -228.9237
         1        20       126       -228.9237
         1        20       127       -228.9237
         1        20       129       -228.9237
         1        20       131       -228.9237
         1        20       133       -228.9237
         1        20       135       -228.9237
         1        20       136      -232.42734
         1        20       138      -232.42734
         1        20       140      -232.42734
         1        20       142      -232.42734
         1        20       143      -232.42734
         1        20       145        -76606.2
         1        20       147      -232.42734
         1        20       149      -232.42734
         1        20       150      -232.42734
         1        20       152      -232.42734
         1        20       154      -180.50641
         1        20       156      -180.50641
         1        20       157      -180.50641
         1        20       159      -180.50641
         1        20       161      -180.50641
         1        20       163      -180.50641
         1        20       164      -180.50641
         1        20       166      -180.50641
         1        20       168      -180.50641
         1        20       170      -180.50641
         1        20       172      -233.64008
         1        20       173      -233.64008
         1        20       175      -233.64008
         1        20       177      -233.64008
         1        20       179      -233.64008
         1        20       180      -233.64008
         1        20       182      -233.64008
         1        20       184      -233.64008
         1        20       186      -233.64008
         1        20       187      -233.64008
         1        20       189      -236.58551
         1        20       191      -236.58551
         1        20       193      -236.58551
         1        20       194      -236.58551
         1        20       196      -236.58551
         1        20       198      -236.58551
         1        21        15      -139.46974
         1        21        16      -139.46974
         1        21        18      -139.46974
         1        21        20      -139.46974
         1        21        22      -139.46974
         1        21        24      -139.46974
         1        21        25      -139.46974
         1        21        27      -139.46974
         1        21        29      -139.46974
         1        21        31      -175.28561
         1        21        32      -175.28561
         1        22        43      -175.28561
         1        22        45      -175.28561
         1        22        46      -175.28561
         1        22        48      -211.44029
         1        22        50      -211.44029
         1        22        52      -211.44029
         1        22        53      -211.44029
         1        22        55      -211.44029
         1        22        57      -211.44029
         1        22        59      -211.44029
         1        22        61      -211.44029
         1        22        62      -211.44029
         1        22        64      -211.44029
         1        22        66       -259.7186
         1        22        68       -259.7186
         1        22        69       -259.7186
         1        22        71       -259.7186
         1        22        73       -259.7186
         1        22        75       -259.7186
         1        22        76       -259.7186
         1        22        78       -259.7186
         1        22        80       -259.7186
         1        22        82       -259.7186
         1        22        83      -227.93614
         1        22        85      -227.93614
         1        22        87      -227.93614
         1        22        89      -227.93614
         1        22        90      -227.93614
         1        22        92      -227.93614
         1        22        94      -227.93614
         1        22        96      -227.93614
         1        22        98      -227.93614
         1        22        99      -227.93614
         1        22       101      -226.17558
         1        22       103      -226.17558
         1        22       105      -226.17558
         1        22       106      -226.17558
         1        22       108      -226.17558
         1        22       110      -226.17558
         1        22       112      -226.17558
         1        22       113      -226.17558
         1        22       115      -226.17558
         1        22       117      -226.17558
         1        22       119      -339.33365
         1        22       120      -339.33365
         1        22       122      -339.33365
         1        22       124      -339.33365