# DIS package for  MODFLOW-NWT, generated by Flopy.
         1       158       342         1         4         2
  0
CONSTANT    5.000000E+02                           #delr                          
CONSTANT    5.000000E+02                           #delc                          
INTERNAL               1 (342E15.6) -1 #model_top                     
   1.034619E+03   9.587143E+02   8.811389E+02   8.195714E+02   8.409524E+02   8.296389E+02   8.947381E+02   8.836905E+02   9.595476E+02   9.846190E+02   9.760476E+02   1.000190E+03   9.878055E+02   8.722857E+02   8.827551E+02   9.797857E+02   9.954490E+02   9.952653E+02   9.839762E+02   9.587755E+02   8.636122E+02   7.467857E+02   6.627551E+02   6.373571E+02   6.236667E+02   6.147619E+02   6.027143E+02   6.019445E+02   6.123571E+02   6.176667E+02   6.541945E+02   6.989048E+02   8.199048E+02   9.552381E+02   9.166905E+02   7.965476E+02   8.011667E+02   7.920000E+02   7.478979E+02   6.937959E+02   6.279048E+02   6.160204E+02   6.453062E+02   6.754286E+02   6.127551E+02   5.827347E+02   5.744286E+02   5.813878E+02   5.944286E+02   5.971389E+02   5.925714E+02   6.028810E+02   6.184167E+02   6.820714E+02   6.858571E+02   6.442500E+02   6.399524E+02   6.368333E+02   6.691667E+02   6.760714E+02   6.926905E+02   7.121667E+02   6.945278E+02   7.151190E+02   7.411429E+02   6.882500E+02   6.952245E+02   7.313265E+02   7.733333E+02   7.399184E+02   7.043265E+02   7.212381E+02   7.546122E+02   7.244490E+02   7.212143E+02   7.454286E+02   7.119388E+02   7.313889E+02   7.400238E+02   7.243333E+02   7.274722E+02   7.242381E+02   6.888571E+02   7.138810E+02   6.776190E+02   6.770238E+02   6.588333E+02   6.721945E+02   6.675714E+02   6.619048E+02   6.937778E+02   7.243095E+02   7.067143E+02   7.336389E+02   7.299048E+02   6.639762E+02   6.407778E+02   6.407755E+02   6.438367E+02   6.607619E+02   6.817755E+02   7.603062E+02   8.970238E+02   9.058163E+02   8.958776E+02   9.048776E+02   8.697959E+02   8.581633E+02   8.105306E+02   7.235000E+02   6.680000E+02   6.545714E+02   6.643889E+02   6.584762E+02   6.607143E+02   6.708889E+02   6.950714E+02   6.953810E+02   7.431111E+02   7.256667E+02   6.910000E+02   6.605833E+02   6.576667E+02   6.544286E+02   6.548055E+02   6.466429E+02   6.523810E+02   6.578055E+02   6.519762E+02   6.536429E+02   6.632143E+02   6.769048E+02   7.205919E+02   7.791021E+02   8.152619E+02   7.860612E+02   7.555714E+02   7.566190E+02   7.426122E+02   7.012449E+02   7.082619E+02   7.261429E+02   7.433674E+02   7.407381E+02   7.421633E+02   7.441021E+02   7.517857E+02   7.619184E+02   7.455919E+02   7.399167E+02   7.457143E+02   7.491190E+02   7.408333E+02   7.348095E+02   7.373810E+02   7.347857E+02   7.606111E+02   7.371429E+02   7.205714E+02   7.128055E+02   7.020714E+02   6.942381E+02   7.051389E+02   7.067857E+02   6.888095E+02   6.490833E+02   6.540476E+02   6.479524E+02   6.557222E+02   6.598810E+02   6.545952E+02   6.303889E+02   6.099286E+02   6.129286E+02   6.358611E+02   6.245476E+02   6.177857E+02   5.984490E+02   5.894286E+02   5.802041E+02   5.713469E+02   5.647143E+02   5.625102E+02   5.614898E+02   5.597619E+02   5.566531E+02   5.566531E+02   5.566190E+02   5.555510E+02   5.590204E+02   5.572381E+02   5.586938E+02   5.531633E+02   5.513333E+02   5.574490E+02   5.617755E+02   5.625238E+02   5.561429E+02   5.570000E+02   5.583878E+02   5.689592E+02   5.784524E+02   5.739286E+02   6.024722E+02   6.344286E+02   6.215714E+02   5.859445E+02   5.657143E+02   5.630000E+02   5.606667E+02   5.532619E+02   5.519524E+02   5.553333E+02   5.467619E+02   5.408810E+02   5.431111E+02   5.468810E+02   5.468333E+02   5.385278E+02   5.509524E+02   5.656429E+02   5.420238E+02   5.334286E+02   5.308571E+02   5.247143E+02   5.201945E+02   5.193810E+02   5.246667E+02   5.304167E+02   5.327143E+02   5.283810E+02   5.248889E+02   5.249048E+02   5.224286E+02   5.214445E+02   5.157857E+02   5.135714E+02   5.141667E+02   5.128810E+02   5.131429E+02   5.182778E+02   5.225952E+02   5.286667E+02   5.275833E+02   5.197381E+02   5.116190E+02   5.085714E+02   5.071945E+02   5.056122E+02   5.041429E+02   5.043571E+02   5.006939E+02   5.040816E+02   5.030714E+02   5.084082E+02   5.156735E+02   5.231667E+02   5.278571E+02   5.300000E+02   5.220476E+02   5.192857E+02   5.128979E+02   5.061905E+02   5.029388E+02   5.015102E+02   5.024286E+02   5.067347E+02   5.195510E+02   5.187551E+02   5.149762E+02   5.178163E+02   5.265714E+02   5.314048E+02   5.349388E+02   5.367755E+02   5.348810E+02   5.349796E+02   5.307143E+02   5.314048E+02   5.305306E+02   5.268571E+02   5.226667E+02   5.191633E+02   5.164694E+02   5.162857E+02   5.184286E+02   5.217143E+02   5.262381E+02   5.294898E+02   5.315510E+02   5.340000E+02   5.396190E+02   5.432245E+02   5.425510E+02   5.465476E+02   5.485306E+02   5.514898E+02   5.551190E+02   5.536938E+02   5.568163E+02   5.605238E+02   5.627959E+02   5.644490E+02   5.679048E+02   5.638163E+02   5.597959E+02   5.589524E+02   5.634286E+02   5.722041E+02   5.795476E+02   5.878163E+02   6.115714E+02   6.134490E+02   6.299048E+02   6.219184E+02   6.026938E+02   6.005476E+02   5.969592E+02   6.097959E+02   6.098571E+02   6.228163E+02   6.114898E+02   5.978333E+02   5.959184E+02   5.956938E+02   5.929762E+02   5.944286E+02   6.020408E+02   6.045000E+02   6.023062E+02   5.918367E+02   5.812857E+02   5.745714E+02   5.712041E+02   5.715102E+02   5.771905E+02   5.837551E+02   5.782653E+02   5.789524E+02   5.762245E+02   5.665714E+02   5.612619E+02
   1.002510E+03   9.695510E+02   9.818163E+02   9.530408E+02   9.688367E+02   9.906326E+02   1.016735E+03   1.001612E+03   9.842041E+02   9.735555E+02   9.538810E+02   9.740714E+02   9.054722E+02   7.753333E+02   7.470952E+02   9.088333E+02   8.937143E+02   9.614286E+02   9.646111E+02   9.475000E+02   8.195238E+02   7.149167E+02   6.769048E+02   6.896667E+02   6.812381E+02   6.840000E+02   6.355919E+02   6.097381E+02   5.974694E+02   6.025919E+02   6.279388E+02   6.912041E+02   7.671837E+02   8.984490E+02   8.893611E+02   7.522619E+02   7.559762E+02   7.372500E+02   6.986429E+02   6.464286E+02   6.217778E+02   6.035952E+02   6.034286E+02   6.435555E+02   6.095952E+02   5.783571E+02   5.752778E+02   5.987143E+02   5.972619E+02   6.143611E+02   6.121633E+02   6.293062E+02   6.495238E+02   7.142041E+02   7.058979E+02   6.991429E+02   6.854898E+02   6.499796E+02   6.715510E+02   7.256667E+02   7.449796E+02   7.679762E+02   7.397500E+02   7.568095E+02   7.353333E+02   7.086945E+02   7.276667E+02   7.376190E+02   7.885555E+02   7.305476E+02   7.349524E+02   7.288055E+02   8.043571E+02   7.438095E+02   7.374167E+02   7.696429E+02   7.721667E+02   7.445555E+02   7.564286E+02   7.511021E+02   7.712857E+02   7.695306E+02   7.044694E+02   7.207347E+02   6.888810E+02   7.020612E+02   6.894081E+02   7.086905E+02   7.243469E+02   7.015714E+02   7.351389E+02   7.216190E+02   6.906190E+02   6.900833E+02   6.684524E+02   6.532143E+02   6.611945E+02   6.880952E+02   6.612857E+02   6.700000E+02   7.217857E+02   8.337143E+02   8.648889E+02   8.555952E+02   8.549286E+02   8.572143E+02   8.708889E+02   9.165000E+02   8.636667E+02   7.324722E+02   6.857857E+02   6.816531E+02   7.038571E+02   6.866531E+02   7.061837E+02   7.254048E+02   7.451429E+02   7.630612E+02   8.037619E+02   7.853878E+02   7.048979E+02   6.768333E+02   6.983878E+02   6.849796E+02   6.906905E+02   6.639048E+02   6.742381E+02   7.134286E+02   7.271429E+02   7.297619E+02   7.180952E+02   7.159445E+02   7.436905E+02   7.591190E+02   7.696389E+02   7.683095E+02   7.528333E+02   7.426945E+02   7.381429E+02   7.268571E+02   7.284167E+02   7.399286E+02   7.347619E+02   7.300833E+02   7.330952E+02   7.399524E+02   7.523333E+02   7.556667E+02   7.382619E+02   7.335555E+02   7.463265E+02   7.478367E+02   7.342653E+02   7.326429E+02   7.294898E+02   7.345102E+02   7.443810E+02   7.313062E+02   7.151224E+02   7.085476E+02   6.943469E+02   6.910408E+02   6.891190E+02   6.959184E+02   6.826531E+02   6.769524E+02   6.753674E+02   6.649796E+02   6.435555E+02   6.438333E+02   6.536190E+02   6.555000E+02   6.249524E+02   6.175476E+02   6.273571E+02   6.171429E+02   6.077857E+02   6.076190E+02   5.969167E+02   5.822143E+02   5.723333E+02   5.655833E+02   5.649762E+02   5.636905E+02   5.611111E+02   5.587381E+02   5.583571E+02   5.577778E+02   5.582381E+02   5.616190E+02   5.618611E+02   5.591905E+02   5.560476E+02   5.559445E+02   5.579762E+02   5.658571E+02   5.696111E+02   5.600714E+02   5.600476E+02   5.639286E+02   5.680833E+02   5.825476E+02   5.989592E+02   6.282381E+02   6.295714E+02   6.058776E+02   5.788333E+02   5.831224E+02   5.736531E+02   5.599286E+02   5.633674E+02   5.691021E+02   5.678095E+02   5.520816E+02   5.461021E+02   5.575476E+02   5.582857E+02   5.509184E+02   5.441190E+02   5.542245E+02   5.697143E+02   5.498367E+02   5.407381E+02   5.340204E+02   5.260816E+02   5.213571E+02   5.212245E+02   5.229592E+02   5.255000E+02   5.300816E+02   5.320816E+02   5.324048E+02   5.450204E+02   5.393095E+02   5.260278E+02   5.205714E+02   5.169762E+02   5.170833E+02   5.166429E+02   5.146190E+02   5.193889E+02   5.253095E+02   5.259286E+02   5.205952E+02   5.198095E+02   5.111190E+02   5.068571E+02   5.056667E+02   5.041667E+02   5.020238E+02   5.021945E+02   4.994762E+02   5.004048E+02   5.004167E+02   5.062857E+02   5.127857E+02   5.166667E+02   5.258333E+02   5.280000E+02   5.186945E+02   5.113095E+02   5.076429E+02   5.036111E+02   5.018333E+02   4.993810E+02   5.034722E+02   5.070238E+02   5.146429E+02   5.109762E+02   5.151945E+02   5.211667E+02   5.264286E+02   5.284167E+02   5.316190E+02   5.327381E+02   5.297222E+02   5.319286E+02   5.269762E+02   5.262222E+02   5.288333E+02   5.238810E+02   5.195833E+02   5.138571E+02   5.138095E+02   5.184445E+02   5.229286E+02   5.253810E+02   5.256111E+02   5.279762E+02   5.314762E+02   5.360714E+02   5.366667E+02   5.363571E+02   5.368095E+02   5.445555E+02   5.430952E+02   5.457619E+02   5.504445E+02   5.465000E+02   5.493810E+02   5.530278E+02   5.550000E+02   5.617143E+02   5.623055E+02   5.586429E+02   5.557381E+02   5.578333E+02   5.642143E+02   5.745000E+02   5.827778E+02   5.833571E+02   5.906905E+02   5.945238E+02   6.160278E+02   6.067381E+02   5.908095E+02   5.878333E+02   5.880952E+02   5.905238E+02   6.011111E+02   6.207857E+02   6.194048E+02   6.101667E+02   6.126905E+02   6.090714E+02   6.080000E+02   6.047143E+02   6.090476E+02   5.974722E+02   5.903095E+02   5.832619E+02   5.802500E+02   5.801190E+02   5.785476E+02   5.773571E+02   5.814445E+02   5.981190E+02   5.958571E+02   5.876945E+02   5.693571E+02   5.634524E+02   5.590278E+02
   9.661190E+02   1.046881E+03   1.052405E+03   1.019639E+03   1.055333E+03   1.079952E+03   1.036528E+03   1.009857E+03   9.498095E+02   8.270833E+02   8.208776E+02   9.059796E+02   7.968571E+02   7.166122E+02   7.040000E+02   8.113810E+02   7.435102E+02   8.738776E+02   8.402143E+02   8.843469E+02   8.782381E+02   8.091111E+02   7.973571E+02   7.702619E+02   7.770000E+02   7.840000E+02   7.107143E+02   6.764762E+02   6.145714E+02   5.909762E+02   6.051190E+02   6.388055E+02   6.810000E+02   8.163571E+02   8.594167E+02   7.383469E+02   6.890408E+02   6.673333E+02   6.526326E+02   6.138163E+02   5.958333E+02   5.898571E+02   5.886531E+02   5.892857E+02   5.845714E+02   5.745714E+02   5.787222E+02   6.174524E+02   6.051905E+02   6.123333E+02   6.191667E+02   6.315952E+02   6.670714E+02   7.115952E+02   7.422619E+02   7.692381E+02   7.719445E+02   6.889286E+02   6.573571E+02   6.881389E+02   7.335238E+02   8.048095E+02   8.577143E+02   7.803265E+02   7.199796E+02   7.366190E+02   8.125510E+02   7.600612E+02   7.697619E+02   7.610816E+02   7.673062E+02   7.463810E+02   8.394898E+02   7.696429E+02   7.666111E+02   7.759524E+02   8.564762E+02   8.097381E+02   7.920476E+02   8.100714E+02   8.615714E+02   7.548055E+02   7.322857E+02   7.558810E+02   7.620278E+02   7.913333E+02   7.856429E+02   8.096389E+02   8.326667E+02   8.587381E+02   8.504722E+02   7.494490E+02   6.888979E+02   6.729286E+02   6.736735E+02   6.772857E+02   7.244286E+02   7.654694E+02   7.231429E+02   7.093810E+02   7.285102E+02   8.408367E+02   8.632449E+02   8.431429E+02   8.416531E+02   8.651905E+02   8.828889E+02   9.217143E+02   8.970000E+02   8.293889E+02   7.537857E+02   7.402143E+02   7.587222E+02   7.309524E+02   7.691429E+02   8.525555E+02   8.897381E+02   8.727143E+02   8.406667E+02   8.165476E+02   7.590714E+02   7.695000E+02   8.029762E+02   7.911905E+02   7.849722E+02   7.525476E+02   7.451429E+02   7.677755E+02   7.630952E+02   7.603062E+02   7.606735E+02   7.517143E+02   7.546531E+02   7.516326E+02   7.555000E+02   7.537551E+02   7.523469E+02   7.437143E+02   7.360816E+02   7.335714E+02   7.323810E+02   7.375306E+02   7.280204E+02   7.236111E+02   7.303333E+02   7.391667E+02   7.527500E+02   7.457381E+02   7.296429E+02   7.371905E+02   7.504524E+02   7.509286E+02   7.334524E+02   7.247778E+02   7.233333E+02   7.314286E+02   7.398889E+02   7.193810E+02   7.083810E+02   6.954445E+02   6.884048E+02   6.815476E+02   6.708611E+02   6.894762E+02   6.787381E+02   6.590000E+02   6.678810E+02   6.604286E+02   6.380476E+02   6.396531E+02   6.551837E+02   6.486905E+02   6.273469E+02   6.205510E+02   6.166326E+02   6.130952E+02   5.990204E+02   5.979184E+02   6.002857E+02   5.851837E+02   5.700000E+02   5.684524E+02   5.720408E+02   5.681633E+02   5.655238E+02   5.610408E+02   5.624286E+02   5.597143E+02   5.607551E+02   5.657551E+02   5.652381E+02   5.614898E+02   5.589286E+02   5.627500E+02   5.643333E+02   5.634048E+02   5.695000E+02   5.639048E+02   5.638571E+02   5.707857E+02   5.753055E+02   5.781905E+02   5.925000E+02   6.222222E+02   6.103095E+02   5.981667E+02   6.024445E+02   6.010238E+02   5.753810E+02   5.668333E+02   5.796905E+02   6.067619E+02   5.919445E+02   5.560952E+02   5.533571E+02   5.806945E+02   5.698095E+02   5.500476E+02   5.486667E+02   5.591190E+02   5.739762E+02   5.512381E+02   5.390555E+02   5.350714E+02   5.281667E+02   5.231111E+02   5.263810E+02   5.253571E+02   5.280000E+02   5.340714E+02   5.391905E+02   5.405000E+02   5.744048E+02   5.929524E+02   5.425714E+02   5.268776E+02   5.218776E+02   5.214286E+02   5.173265E+02   5.181429E+02   5.213571E+02   5.276938E+02   5.239184E+02   5.166326E+02   5.120952E+02   5.082041E+02   5.065918E+02   5.049524E+02   5.040816E+02   5.032041E+02   5.020238E+02   5.014286E+02   4.990816E+02   5.023333E+02   5.042653E+02   5.084898E+02   5.214048E+02   5.280408E+02   5.269184E+02   5.157143E+02   5.082449E+02   5.053673E+02   5.032857E+02   5.015918E+02   4.990816E+02   5.031021E+02   5.097755E+02   5.073469E+02   5.138979E+02   5.220476E+02   5.206122E+02   5.213469E+02   5.266667E+02   5.292449E+02   5.270408E+02   5.250714E+02   5.277551E+02   5.231429E+02   5.196429E+02   5.240408E+02   5.215919E+02   5.168810E+02   5.123878E+02   5.174490E+02   5.210476E+02   5.267551E+02   5.279184E+02   5.294524E+02   5.307143E+02   5.324081E+02   5.345919E+02   5.307143E+02   5.310952E+02   5.366429E+02   5.400833E+02   5.388095E+02   5.435952E+02   5.473889E+02   5.430714E+02   5.452143E+02   5.451111E+02   5.507143E+02   5.571905E+02   5.569167E+02   5.541905E+02   5.556190E+02   5.608889E+02   5.637143E+02   5.682143E+02   5.741111E+02   5.767619E+02   5.835238E+02   5.915238E+02   6.117222E+02   6.083810E+02   5.905714E+02   5.834167E+02   5.826190E+02   5.852619E+02   5.975555E+02   6.163674E+02   6.226326E+02   6.331190E+02   6.276326E+02   6.172857E+02   6.140714E+02   6.015919E+02   6.008979E+02   5.954286E+02   5.925102E+02   5.895714E+02   5.872143E+02   5.883265E+02   5.896938E+02   5.889796E+02   5.912143E+02   6.020816E+02   6.136938E+02   6.037143E+02   5.816326E+02   5.653469E+02   5.594762E+02
   1.025262E+03   1.040898E+03   9.672449E+02   9.423810E+02   1.033000E+03   1.000714E+03   9.637222E+02   9.162143E+02   8.937857E+02   7.520000E+02   7.471905E+02   8.906905E+02   7.967222E+02   6.784048E+02   6.670476E+02   7.111667E+02   6.817381E+02   7.784762E+02   7.147500E+02   7.543095E+02   9.074286E+02   9.374286E+02   9.434694E+02   9.114694E+02   9.224081E+02   8.994286E+02   7.716938E+02   6.739184E+02   6.300238E+02   5.943469E+02   5.944524E+02   6.167778E+02   6.595714E+02   7.513571E+02   7.963611E+02   7.440952E+02   6.601667E+02   6.321111E+02   6.121667E+02   5.940000E+02   5.808055E+02   5.786667E+02   5.769762E+02   5.744445E+02   5.740000E+02   5.753469E+02   5.828810E+02   6.027959E+02   6.145306E+02   6.130408E+02   6.222653E+02   6.375714E+02   6.771633E+02   7.029048E+02   7.584694E+02   7.948367E+02   7.751111E+02   6.927857E+02   6.759762E+02   6.806667E+02   6.991190E+02   7.467857E+02   8.535000E+02   7.709286E+02   7.539286E+02   7.460555E+02   8.478095E+02   8.318810E+02   8.199167E+02   8.628810E+02   8.104286E+02   8.194167E+02   8.894286E+02   8.400000E+02   8.191837E+02   8.388367E+02   9.058979E+02   9.462653E+02   9.330714E+02   9.387755E+02   9.028571E+02   8.508095E+02   7.782653E+02   8.539184E+02   9.147381E+02   9.110952E+02   9.123095E+02   9.175278E+02   9.260238E+02   9.090952E+02   9.172778E+02   8.256190E+02   7.436905E+02   7.011945E+02   7.324286E+02   7.620238E+02   8.572222E+02   9.124048E+02   8.929762E+02   8.887857E+02   8.826905E+02   8.525238E+02   8.347619E+02   8.325555E+02   8.391429E+02   8.830238E+02   8.692857E+02   8.565510E+02   8.582245E+02   8.767381E+02   8.921837E+02   8.693674E+02   8.770714E+02   8.662449E+02   9.017143E+02   9.095952E+02   8.529388E+02   8.346531E+02   8.189048E+02   8.254762E+02   8.322381E+02   8.478333E+02   8.566667E+02   8.459048E+02   8.486429E+02   8.188095E+02   7.770952E+02   7.653810E+02   7.616667E+02   7.522619E+02   7.514048E+02   7.467500E+02   7.494762E+02   7.414524E+02   7.437222E+02   7.424286E+02   7.420714E+02   7.456111E+02   7.375476E+02   7.303810E+02   7.240000E+02   7.256190E+02   7.211667E+02   7.228055E+02   7.314081E+02   7.430204E+02   7.489762E+02   7.368776E+02   7.234490E+02   7.316735E+02   7.360952E+02   7.398776E+02   7.330612E+02   7.195238E+02   7.192449E+02   7.278367E+02   7.344048E+02   7.227347E+02   7.067959E+02   7.041429E+02   7.026735E+02   6.866190E+02   6.646945E+02   6.713333E+02   6.699048E+02   6.556667E+02   6.638333E+02   6.640714E+02   6.403889E+02   6.300476E+02   6.336905E+02   6.395000E+02   6.261429E+02   6.140000E+02   6.141190E+02   6.031111E+02   5.926429E+02   5.831667E+02   5.834445E+02   5.735476E+02   5.708095E+02   5.745000E+02   5.787381E+02   5.703095E+02   5.650555E+02   5.640952E+02   5.664524E+02   5.623055E+02   5.638571E+02   5.697381E+02   5.679445E+02   5.628095E+02   5.619048E+02   5.656905E+02   5.682041E+02   5.673062E+02   5.704490E+02   5.682857E+02   5.683878E+02   5.722857E+02   5.786190E+02   5.799592E+02   5.887143E+02   6.275476E+02   6.445714E+02   6.431633E+02   6.361429E+02   5.987143E+02   6.005306E+02   5.896429E+02   5.760000E+02   6.004081E+02   5.882619E+02   5.620204E+02   5.632041E+02   5.953571E+02   5.687959E+02   5.549184E+02   5.607143E+02   5.615952E+02   5.792143E+02   5.585000E+02   5.464722E+02   5.387619E+02   5.279286E+02   5.269445E+02   5.300476E+02   5.294524E+02   5.303055E+02   5.388571E+02   5.659048E+02   5.550000E+02   5.695000E+02   6.029524E+02   5.865000E+02   5.444286E+02   5.272143E+02   5.228889E+02   5.190238E+02   5.228571E+02   5.252500E+02   5.277857E+02   5.245714E+02   5.191190E+02   5.120833E+02   5.086429E+02   5.072143E+02   5.099167E+02   5.155476E+02   5.088810E+02   5.048611E+02   5.024762E+02   5.021190E+02   4.997222E+02   5.028333E+02   5.072381E+02   5.206389E+02   5.223333E+02   5.235952E+02   5.123055E+02   5.065476E+02   5.039048E+02   5.027222E+02   5.012857E+02   4.985000E+02   5.025238E+02   5.068889E+02   5.027143E+02   5.121429E+02   5.153055E+02   5.132619E+02   5.225238E+02   5.236111E+02   5.262619E+02   5.227381E+02   5.241111E+02   5.254762E+02   5.206905E+02   5.147222E+02   5.165476E+02   5.166905E+02   5.130555E+02   5.126905E+02   5.196190E+02   5.238333E+02   5.275714E+02   5.307143E+02   5.320278E+02   5.313333E+02   5.289048E+02   5.288571E+02   5.278889E+02   5.325714E+02   5.358571E+02   5.344524E+02   5.351633E+02   5.411429E+02   5.426667E+02   5.393674E+02   5.403469E+02   5.413810E+02   5.457347E+02   5.507755E+02   5.494048E+02   5.512041E+02   5.549184E+02   5.579048E+02   5.633062E+02   5.708979E+02   5.770476E+02   5.809388E+02   5.865919E+02   5.903062E+02   5.956190E+02   5.901837E+02   5.895919E+02   5.795238E+02   5.790612E+02   5.865510E+02   5.978333E+02   5.961633E+02   6.044286E+02   6.294722E+02   6.249524E+02   6.051190E+02   5.970555E+02   5.875714E+02   5.841190E+02   5.849167E+02   5.805000E+02   5.840000E+02   5.795278E+02   5.786429E+02   5.793810E+02   5.861905E+02   5.988333E+02   5.988571E+02   6.068333E+02   6.073889E+02   5.806667E+02   5.658333E+02   5.614167E+02
   9.361945E+02   9.600714E+02   8.868571E+02   8.531945E+02   9.750476E+02   9.385476E+02   8.773055E+02   8.431633E+02   8.184898E+02   7.119762E+02   7.240408E+02   8.228163E+02   7.285714E+02   6.859796E+02   6.473469E+02   6.658333E+02   6.594762E+02   7.149048E+02   6.803810E+02   7.023571E+02   7.984286E+02   8.448095E+02   8.489286E+02   8.352381E+02   8.622619E+02   9.037778E+02   7.840952E+02   6.864048E+02   6.442778E+02   5.979524E+02   5.853571E+02   6.097857E+02   6.318979E+02   6.495102E+02   6.693810E+02   6.947959E+02   6.278571E+02   6.005000E+02   5.950000E+02   5.885510E+02   5.760555E+02   5.772857E+02   5.775714E+02   5.791111E+02   5.802381E+02   5.866190E+02   5.949286E+02   6.033810E+02   6.320952E+02   6.350238E+02   6.256389E+02   6.422857E+02   6.710952E+02   7.060000E+02   7.659524E+02   8.589286E+02   7.771667E+02   7.356531E+02   6.927959E+02   6.978095E+02   7.304694E+02   7.872041E+02   8.933333E+02   7.881021E+02   7.789796E+02   7.719762E+02   8.429592E+02   9.096531E+02   8.966667E+02   9.188810E+02   8.047381E+02   8.864286E+02   9.508810E+02   8.692381E+02   8.192381E+02   8.986389E+02   9.783333E+02   9.975714E+02   9.674167E+02   9.646905E+02   9.681667E+02   9.489167E+02   9.244762E+02   9.471905E+02   9.403333E+02   9.162381E+02   8.945306E+02   8.952143E+02   9.029388E+02   8.827959E+02   8.815238E+02   8.965714E+02   8.776122E+02   8.297619E+02   8.597551E+02   9.018979E+02   9.136735E+02   9.133878E+02   9.070408E+02   8.736429E+02   8.579167E+02   8.446429E+02   8.286429E+02   8.243889E+02   8.319524E+02   8.367619E+02   8.341945E+02   8.392857E+02   8.549286E+02   8.923611E+02   8.825714E+02   8.479048E+02   8.416111E+02   8.559762E+02   9.027619E+02   8.775000E+02   8.618095E+02   8.329762E+02   8.163889E+02   8.065476E+02   8.059184E+02   8.076326E+02   8.134694E+02   8.077347E+02   8.059796E+02   7.926190E+02   7.675306E+02   7.569388E+02   7.545000E+02   7.485510E+02   7.418571E+02   7.421190E+02   7.464898E+02   7.361429E+02   7.338571E+02   7.339388E+02   7.372143E+02   7.365555E+02   7.360238E+02   7.353810E+02   7.264722E+02   7.182381E+02   7.178095E+02   7.310000E+02   7.409048E+02   7.529524E+02   7.499048E+02   7.366667E+02   7.209524E+02   7.190000E+02   7.224722E+02   7.330238E+02   7.355476E+02   7.175833E+02   7.172143E+02   7.253095E+02   7.311945E+02   7.338571E+02   7.300714E+02   7.147222E+02   6.956429E+02   6.772143E+02   6.609286E+02   6.520816E+02   6.533265E+02   6.490238E+02   6.577143E+02   6.584694E+02   6.420476E+02   6.256531E+02   6.281021E+02   6.366531E+02   6.236905E+02   6.096122E+02   6.052857E+02   5.952381E+02   5.891837E+02   5.825919E+02   5.771190E+02   5.782041E+02   5.736122E+02   5.774524E+02   5.770816E+02   5.693810E+02   5.665833E+02   5.681190E+02   5.697143E+02   5.645278E+02   5.677619E+02   5.734524E+02   5.685555E+02   5.639762E+02   5.656667E+02   5.692500E+02   5.735952E+02   5.727857E+02   5.764524E+02   5.740833E+02   5.755714E+02   5.798810E+02   5.829722E+02   5.916429E+02   5.951905E+02   6.075000E+02   6.392619E+02   6.508571E+02   6.458611E+02   6.259762E+02   6.174762E+02   5.912222E+02   5.948333E+02   6.101905E+02   5.911389E+02   5.785238E+02   5.842143E+02   6.015555E+02   5.801190E+02   5.701429E+02   5.857619E+02   5.830555E+02   5.650000E+02   5.488776E+02   5.443571E+02   5.354694E+02   5.301021E+02   5.342143E+02   5.394081E+02   5.416122E+02   5.382381E+02   5.387959E+02   5.775306E+02   5.940476E+02   6.050816E+02   5.934081E+02   5.630238E+02   5.481633E+02   5.292653E+02   5.248095E+02   5.223062E+02   5.267143E+02   5.280238E+02   5.234694E+02   5.183265E+02   5.148571E+02   5.120714E+02   5.107551E+02   5.121021E+02   5.127143E+02   5.188163E+02   5.094286E+02   5.045714E+02   5.018776E+02   5.031021E+02   5.031429E+02   4.997959E+02   5.029388E+02   5.125952E+02   5.126122E+02   5.144490E+02   5.065714E+02   5.037143E+02   5.019286E+02   5.012500E+02   4.993810E+02   4.975476E+02   5.013333E+02   5.033611E+02   5.011429E+02   5.032857E+02   5.032222E+02   5.103810E+02   5.158571E+02   5.200278E+02   5.205238E+02   5.190714E+02   5.247500E+02   5.256905E+02   5.217381E+02   5.191667E+02   5.125238E+02   5.122619E+02   5.099445E+02   5.155952E+02   5.194286E+02   5.225000E+02   5.261190E+02   5.292143E+02   5.286389E+02   5.277857E+02   5.254048E+02   5.260476E+02   5.261111E+02   5.301667E+02   5.291667E+02   5.298611E+02   5.323095E+02   5.373333E+02   5.359445E+02   5.359524E+02   5.384286E+02   5.394722E+02   5.420000E+02   5.450238E+02   5.488611E+02   5.525714E+02   5.562381E+02   5.602222E+02   5.693810E+02   5.774524E+02   5.802500E+02   5.832857E+02   5.841905E+02   5.861905E+02   5.860000E+02   5.798095E+02   5.796429E+02   5.761111E+02   5.756190E+02   5.822381E+02   5.968889E+02   5.871905E+02   5.894286E+02   6.095000E+02   6.114762E+02   6.013571E+02   5.908611E+02   5.852381E+02   5.810714E+02   5.769167E+02   5.750714E+02   5.773810E+02   5.734722E+02   5.727857E+02   5.716190E+02   5.775555E+02   5.824167E+02   5.836667E+02   6.014524E+02   6.104722E+02   5.962143E+02   5.754286E+02   5.753055E+02