# WEL package for  MODFLOW-NWT, generated by Flopy.
     88612         0 
SPECIFY        0.1         50
     88612         0 # stress period 1
         1       181         6     -0.19818701
         1       182         6      -1.2872864
         1       183         6     -0.89605874
         1       180         7     -0.10717951
         1       181         7     -0.30798036
         1       182         7      -1.3803908
         1       183         7     -0.95510477
         1       180         8      -1.4895266
         1       181         8      -1.3080516
         1       180         9       -1.015893
         1       181         9      -0.8960532
         1       189        11      -0.3496715
         1       190        11     -0.48516312
         1       191        11     -0.05631019
         1       189        12     -0.54463917
         1       190        12      -0.7541139
         1       191        12     -0.09241777
         1       189        13     -0.06696159
         1       190        13     -0.08758365
         1       191        13      -250.88535
         1       192        13      -284.89777
         1       193        13       -0.686738
         1       194        13      -0.5691022
         1       189        14    -0.061700385
         1       190        14     -0.09378919
         1       191        14      -241.03894
         1       192        14      -273.26273
         1       193        14     -0.64023095
         1       194        14      -0.5258024
         1       170        15     -0.20598765
         1       171        15      -1.4484605
         1       172        15      -1.0245123
         1       189        15     -0.52448034
         1       190        15      -0.7541234
         1       191        15    -0.112574704
         1       159        16     -0.09490057
         1       160        16      -0.5043114
         1       161        16     -0.34984338
         1       170        16      -0.1657049
         1       171        16      -1.2184818
         1       172        16      -0.8564152
         1       189        16     -0.33348474
         1       190        16     -0.47895566
         1       191        16     -0.07435277
         1       159        17      -0.9915622
         1       160        17       -5.108962
         1       161        17      -3.3243923
         1       156        18     -0.74303997
         1       157        18      -0.8516368
         1       159        18      -0.6339055
         1       160        18      -3.3687072
         1       161        18      -2.1919887
         1       180        18      -0.5203465
         1       181        18     -0.59366107
         1       182        18      -0.6036039
         1       183        18      -0.4892769
         1       156        19       -2.414143
         1       157        19      -2.7290702
         1       180        19      -0.9973332
         1       181        19      -1.1282663
         1       182        19      -1.1282663
         1       183        19        -0.90888
         1       156        20      -1.0832796
         1       157        20      -1.2194455
         1       159        20       -0.266699
         1       160        20      -1.6241692
         1       161        20      -1.1168604
         1       180        20     -0.23898113
         1       181        20     -0.28835377
         1       182        20       -1.128271
         1       183        20      -0.9187802
         1       159        21       -0.442564
         1       160        21      -2.7880106
         1       161        21       -1.912648
         1       181        21    -0.024216348
         1       182        21      -1.1093196
         1       183        21      -0.9055279
         1       145        22      -3.7391262
         1       146        22       -4.035185
         1       147        22      -1.9805816
         1       148        22      -2.0050871
         1       149        22      -2.0295854
         1       150        22      -1.2857827
         1       159        22     -0.41810697
         1       160        22       -2.788022
         1       161        22      -1.9371026
         1       169        22     -0.94381756
         1       170        22     -0.94523907
         1       145        23       -5.349841
         1       146        23      -5.7762256
         1       147        23      -2.7880335
         1       148        23      -2.7880335
         1       149        23      -2.7880335
         1       150        23      -1.7703212
         1       152        23  -0.00015878565
         1       153        23    -0.014952434
         1       154        23    -0.010235174
         1       159        23     -0.39373425
         1       160        23      -2.7880332
         1       161        23      -1.9614736
         1       169        23      -0.8854835
         1       170        23      -0.8853211
         1       130        24      -3.1047182
         1       131        24        -4.83499
         1       132        24     -0.95771235
         1       145        24       -5.297803
         1       146        24      -5.6833525
         1       147        24     -0.13121057
         1       148        24      -0.6474376
         1       149        24       -2.788045
         1       150        24      -2.7699037
         1       151        24       -2.754299
         1       152        24      -2.7784932
         1       153        24      -2.7880447
         1       154        24      -0.9290543
         1       159        24     -0.36943597
         1       160        24      -2.7880447
         1       161        24      -1.9857692
         1       130        25      -3.6221025
         1       131        25      -5.6150856
         1       132        25      -1.4511784
         1       133        25     -0.43747392
         1       134        25     -0.02489985
         1       145        25      -4.3126826
         1       146        25       -4.672872
         1       147        25      -0.5450512
         1       148        25     -0.88676447
         1       149        25      -2.1945214
         1       150        25      -2.1702871
         1       151        25      -2.1460607
         1       152        25      -2.1218374
         1       153        25      -2.0976222
         1       154        25     -0.70938814
         1       159        25     -0.24298386
         1       160        25       -1.928265
         1       161        25      -1.3725281
         1       204        25       -0.442104
         1       205        25      -0.5244331
         1       226        25     -0.19965065
         1       227        25     -0.28217602
         1       228        25     -0.03721878
         1       237        25     -0.25010085
         1       238        25     -0.39009914
         1       239        25      -0.0779819
         1       132        26       -4.678745
         1       133        26       -5.948752
         1       134        26     -0.34657544
         1       146        26     -0.07919615
         1       147        26      -2.7880673
         1       148        26      -2.2760384
         1       204        26      -0.6366002
         1       205        26      -0.7561732
         1       206        26   -0.0022916791
         1       226        26     -0.22498798
         1       227        26     -0.31892547
         1       228        26    -0.044402827
         1       237        26     -0.20102528
         1       238        26     -0.31219095
         1       239        26     -0.06399805
         1       132        27       -4.626997
         1       133        27       -5.948776
         1       134        27      -2.2006261
         1       135        27      -1.8158057
         1       139        27      -0.8749937
         1       140        27      -2.2454212
         1       141        27      -1.0241879
         1       143        27      -1.7012961
         1       144        27      -2.4514914
         1       145        27     -0.34243196
         1       146        27    -0.055023387
         1       147        27      -2.7880785
         1       148        27      -2.3002093
         1       161        27      -0.4073213
         1       162        27      -1.5824721
         1       163        27      -0.9365442
         1       204        27      -0.0452399
         1       205        27    -0.048109807
         1       206        27  -0.00033439544
         1       209        27     -0.22015017
         1       210        27     -0.74039656
         1       211        27     -0.40667427
         1       226        27     -0.22228228
         1       227        27     -0.31892675
         1       228        27    -0.047108255
         1       132        28      -4.5754476
         1       133        28      -5.9487996
         1       134        28      -5.9487996
         1       135        28       -5.475167
         1       139        28      -2.3206584
         1       140        28      -5.9487996
         1       141        28      -2.7046132
         1       143        28      -4.1677246
         1       144        28      -5.9487996
         1       145        28      -0.8575269
         1       146        28    -0.030947693
         1       147        28      -2.7880898
         1       148        28       -2.324283
         1       161        28     -0.70586276
         1       162        28      -2.7880898
         1       163        28        -1.64933
         1       209        28     -0.17347917
         1       210        28     -0.59088564
         1       211        28     -0.32405043
         1       224        28     -0.05736718
         1       225        28    -0.110224746
         1       226        28     -0.17704962
         1       227        28     -0.20331638
         1       228        28    -0.031195568
         1       121        29     -0.27745223
         1       122        29     -0.34141985
         1       123        29   -0.0062035853
         1       132        29       -4.524007
         1       133        29      -5.9488235
         1       134        29      -5.9488235
         1       135        29      -5.5265985
         1       139        29      -0.8811092
         1       140        29      -2.2584178
         1       141        29       -3.031549
         1       142        29      -3.7929082
         1       143        29       -5.300932
         1       144        29      -5.9488235
         1       145        29      -0.9088167
         1       146        29   -0.0048640817
         1       147        29     -0.89043134
         1       148        29      -0.7288146
         1       159        29      -0.1941441
         1       160        29        -2.20903
         1       161        29      -2.3684058
         1       162        29       -2.788101
         1       163        29      -1.6732554
         1       224        29     -0.16735606
         1       225        29      -0.3189293
         1       226        29    -0.102034576
         1       121        30      -0.6024871
         1       122        30      -0.7343608
         1       123        30    -0.017873583
         1       132        30      -4.4727745
         1       133        30      -5.9488473
         1       134        30      -5.9488473
         1       135        30       -5.577823
         1       141        30      -3.1417444
         1       142        30      -5.9488473
         1       143        30      -5.9488473
         1       144        30      -5.9488473
         1       145        30     -0.95990515
         1       159        30     -0.21883304
         1       160        30      -2.6925387
         1       161        30      -2.6985593
         1       162        30       -2.788112
         1       163        30      -1.7645577
         1       164        30     -0.19066761
         1       165        30     -0.14340429
         1       166        30     -0.09638941
         1       167        30     -0.10600067
         1       168        30     -0.11560893
         1       169        30     -0.12521553
         1       170        30     -0.13481952
         1       171        30     -0.14442137
         1       172        30     -0.15402114
         1       173        30     -0.16361825
         1       174        30     -0.17321374
         1       175        30     -0.18280621
         1       176        30     -0.09986113
         1       224        30     -0.06978459
         1       225        30     -0.13249134
         1       226        30      -0.0425948
         1       108        31      -1.7929659
         1       109        31      -2.5099049
         1       110        31      -0.6978762
         1       111        31     -0.45081508
         1       112        31      -0.4571505
         1       113        31      -0.3752718
         1       121        31     -0.17899086
         1       122        31      -0.2139388
         1       123        31      -0.5151378
         1       124        31     -0.46815956
         1       132        31       -4.421658
         1       133        31       -5.948871
         1       134        31       -5.948871
         1       135        31       -5.628929
         1       141        31      -3.0907502
         1       142        31       -5.948871
         1       143        31       -5.948871
         1       144        31       -5.948871
         1       145        31      -1.0108645
         1       147        31      -2.5355728
         1       148        31      -2.2318923
         1       161        31       -0.634323
         1       162        31      -2.7881231
         1       163        31      -2.7881231
         1       164        31      -2.7881231
         1       165        31      -1.8950356
         1       166        31      -1.1283212
         1       167        31      -1.1283212
         1       168        31      -1.1283212
         1       169        31      -1.1283212
         1       170        31      -1.1283208
         1       171        31      -1.1283214
         1       172        31      -1.1283212
         1       173        31      -1.1283212
         1       174        31      -1.1283212
         1       175        31      -1.1283212
         1       176        31     -0.59824914
         1       108        32      -3.0144072
         1       109        32      -4.2068553
         1       110        32      -1.1796101
         1       111        32      -0.7343666
         1       112        32      -0.7343666
         1       113        32      -0.6005273
         1       123        32      -0.7038615
         1       124        32      -0.6508636
         1       128        32  -0.00084614893
         1       132        32      -4.3707266
         1       133        32       -5.948894
         1       134        32       -5.948894
         1       135        32      -5.6798544
         1       141        32      -3.0399272
         1       142        32       -5.948894
         1       143        32       -5.423965
         1       144        32      -5.1145053
         1       145        32      -0.9042577
         1       147        32      -2.7234619
         1       148        32       -2.419895
         1       161        32       -0.610618
         1       162        32       -2.788134
         1       163        32       -2.788134
         1       164        32       -2.788134
         1       165        32      -1.9091437
         1       166        32      -1.1283256
         1       167        32      -1.1283256
         1       168        32      -1.1283256
         1       169        32      -1.1283256
         1       170        32      -1.1283256
         1       171        32      -1.1283256
         1       172        32      -1.1283256
         1       173        32      -1.1283256
         1       174        32     -0.99211794
         1       175        32      -0.6732726
         1       176        32      -0.5719247
         1       177        32     -0.47412735
         1       178        32     -0.18547001
         1       220        32     -0.05884555
         1       221        32     -0.31499112
         1       222        32     -0.20863628
         1       104        33      -1.3358889
         1       105        33      -3.3934336
         1       106        33        -3.42958
         1       107        33       -3.465715
         1       108        33      -3.9997725
         1       109        33       -4.206872
         1       110        33       -1.209445
         1       111        33     -0.72307205
         1       112        33     -0.09786049
         1       113        33    -0.075775206
         1       123        33    -0.027190318
         1       124        33    -0.020224402
         1       126        33     -0.18925105
         1       127        33     -0.73084825
         1       128        33      -0.4291102
         1       132        33        -4.31995
         1       133        33       -5.948918
         1       134        33       -5.948918
         1       135        33       -5.730619
         1       141        33      -2.9892745
         1       142        33       -5.948918
         1       143        33      -2.0359647
         1       147        33      -2.6997628
         1       148        33      -2.4436026
         1       161        33     -0.58700436
         1       162        33       -2.788145
         1       163        33       -2.788145
         1       164        33       -2.788145
         1       165        33      -1.9231963
         1       166        33      -1.1283301
         1       167        33      -1.1283301
         1       168        33      -1.1283301
         1       169        33      -1.1283301
         1       170        33      -1.1283301
         1       171        33      -1.1283301
         1       172        33        -1.12833
         1       173        33      -1.1283301
         1       174        33      -0.7925611
         1       176        33      -0.5109973
         1       177        33      -1.1283301
         1       178        33     -0.44210252
         1       220        33    -0.070266336
         1       221        33     -0.38699633
         1       222        33     -0.25511098
         1       104        34      -1.6361005
         1       105        34       -4.206888
         1       106        34       -4.206888
         1       107        34       -4.206888
         1       108        34      -3.9782915
         1       109        34      -3.8477254
         1       110        34      -1.1824864
         1       111        34      -0.7275969
         1       112        34      -0.0815004
         1       113        34    -0.073179126
         1       126        34     -0.17644916
         1       127        34       -0.699308
         1       128        34      -1.0140898
         1       129        34      -1.5213709
         1       130        34     -0.68657213
         1       132        34       -4.269314
         1       133        34       -5.948941
         1       134        34      -4.4028225
         1       135        34       -4.003455
         1       141        34      -1.8874077
         1       142        34      -3.7713158
         1       143        34       -2.751309
         1       144        34      -2.2784126
         1       145        34     -0.45721132
         1       147        34         -1.5856
         1       148        34      -1.5691898
         1       149        34      -1.1858451
         1       150        34     -0.88300484
         1       156        34      -0.9938412
         1       157        34       -1.374354
         1       158        34     -0.15346573
         1       161        34     -0.56344175
         1       162        34       -2.788156
         1       163        34       -2.788156
         1       164        34       -2.788156
         1       165        34       -1.937219
         1       166        34      -1.1283345
         1       167        34      -1.1283345
         1       168        34      -1.1283345
         1       169        34      -1.1283345
         1       170        34      -1.1283345
         1       171        34      -1.1283345
         1       172        34      -1.1283345
         1       173        34      -1.1283345
         1       174        34     -0.80206865
         1       176        34     -0.17392401
         1       177        34     -0.38205254
         1       178        34     -0.14920498
         1       104        35      -1.6001575
         1       105        35       -4.206905
         1       106        35       -4.206905
         1       107        35       -4.206905
         1       108        35      -1.3005615
         1       110        35      -0.6213523
         1       111        35     -0.73437417
         1       112        35     -0.73437643
         1       113        35      -0.6193773
         1       126        35     -0.14298837
         1       127        35      -0.5875002
         1       128        35      -2.7248325
         1       129        35      -5.9489646
         1       130        35      -2.6537642
         1       132        35       -4.218873
         1       133        35      -5.9489646
         1       134        35      -0.8064085
         1       143        35       -3.812158
         1       144        35      -5.9489646
         1       145        35       -1.213063
         1       148        35     -0.29735684
         1       149        35       -2.788167
         1       150        35       -2.057855
         1       156        35      -2.0292065
         1       157        35       -2.788167
         1       158        35     -0.32598627
         1       161        35     -0.53997636
         1       162        35       -2.788167
         1       163        35       -2.788167
         1       164        35       -2.788167
         1       165        35       -1.951184
         1       166        35      -1.1283389
         1       167        35      -1.1283389
         1       168        35      -1.1283389
         1       169        35      -1.1283389
         1       170        35      -1.1283389
         1       171        35      -1.1283389
         1       172        35      -1.1283389
         1       173        35      -1.1283389
         1       174        35     -0.81153786
         1       193        35     -0.12710455
         1       194        35      -0.1848745
         1       195        35     -0.21952936
         1       196        35     -0.21633065
         1       242        35    -0.011887582
         1       243        35      -0.4622385
         1       244        35     -0.38468298
         1       104        36      -1.1144073
         1       105        36      -2.9625835
         1       106        36      -2.9268336
         1       107        36      -2.8910954
         1       108        36      -1.3015873
         1       109        36     -0.59354436
         1       110        36      -0.8165552
         1       111        36      -0.8592568
         1       112        36       -0.862313
         1       113        36      -0.7958382
         1       114        36     -0.40737352
         1       115        36     -0.29038084
         1       126        36     -0.19429493
         1       127        36      -0.8320299
         1       128        36      -2.2838848
         1       129        36      -4.5217524
         1       130        36      -2.8998911
         1       131        36      -1.5946175
         1       132        36      -2.4685924
         1       133        36      -2.7783308
         1       134        36      -1.8200834
         1       135        36      -1.6829222
         1       141        36      -0.8852909
         1       142        36      -1.8813734
         1       143        36       -3.347157
         1       144        36      -4.1599183
         1       145        36      -0.8774459
         1       148        36     -0.09485482
         1       149        36      -0.9261665
         1       150        36      -0.6735294
         1       156        36     -0.54821837
         1       157        36      -0.7386977
         1       158        36    -0.088678285
         1       161        36      -1.2606701
         1       162        36       -6.851369
         1       163        36       -6.895223
         1       164        36       -6.939063
         1       165        36      -4.2533393
         1       166        36      -1.4857066
         1       167        36     -0.65206945
         1       168        36     -0.19485669
         1       169        36      -0.1854073
         1       170        36      -0.1759606
         1       171        36     -0.16651586
         1       172        36      -0.1570733
         1       173        36     -0.14763325
         1       174        36     -0.10098666
         1       193        36      -3.4373481
         1       194        36       -4.163524
         1       195        36       -4.163524
         1       196        36      -3.5962698
         1       242        36    -0.020576289
         1       243        36      -1.0273168
         1       244        36     -0.84712315
         1       108        37      -1.2128916
         1       109        37       -1.799926
         1       110        37      -1.2150784
         1       111        37      -1.0945339
         1       112        37      -1.0945339
         1       113        37      -1.0945339
         1       114        37      -1.0945339
         1       115        37     -0.77177656
         1       126        37      -0.2478785
         1       127        37      -1.0945339
         1       128        37      -1.8562301
         1       129        37      -3.0898604
         1       130        37      -3.0898604
         1       131        37      -3.0898604
         1       132        37     -0.95079136
         1       134        37      -2.6188495
         1       135        37      -3.0807393
         1       136        37  -0.00034346667
         1       141        37      -1.4481637
         1       142        37      -3.0898604
         1       143        37      -3.0898604
         1       144        37      -3.0898604
         1       145        37      -0.6820778
         1       160        37       -1.308309
         1       161        37       -5.727152
         1       162        37      -7.8656383
         1       163        37      -7.7987747
         1       164        37       -7.731932
         1       165        37       -4.665264
         1       166        37      -1.4872046
         1       167        37        -0.58994
         1       168        37    -0.108178936
         1       169        37     -0.02387751
         1       185        37     -0.17137314
         1       186        37      -0.9099011
         1       187        37      -0.6117624
         1       193        37      -2.4626143
         1       194        37       -2.977647
         1       195        37      -4.1270347
         1       196        37      -3.6308184
         1       242        37    -0.004749472
         1       243        37      -0.3204002
         1       244        37     -0.25952816
         1       108        38      -1.1976657
         1       109        38      -1.7999331
         1       110        38      -1.2210492
         1       111        38      -1.0945382
         1       112        38      -1.0945382
         1       113        38      -1.0945382
         1       114        38      -1.0945382
         1       115        38     -0.78102374
         1       124        38    -0.037960302
         1       125        38      -0.6208242
         1       126        38      -0.5589128
         1       127        38     -0.30009702
         1       128        38      -1.3359994
         1       129        38      -3.0898724
         1       130        38      -3.0898724
         1       131        38      -3.0898724
         1       132        38      -2.5997844
         1       133        38        -2.39848
         1       134        38     -0.94928473
         1       135        38     -0.63951397
         1       136        38   -0.0013914509
         1       141        38      -1.4222517
         1       142        38      -3.0898724
         1       143        38      -1.4523798
         1       144        38     -0.40635973
         1       145        38      -2.1775124
         1       146        38       -2.735259
         1       147        38       -6.838695
         1       148        38       -6.642794
         1       156        38       -5.463918
         1       157        38       -7.834662
         1       158        38      -1.1188971
         1       159        38       -7.010797
         1       160        38       -530.1373
         1       161        38      -440.87448
         1       167        38     -0.99566746
         1       168        38      -1.5692439
         1       169        38     -0.32985353
         1       185        38     -0.78144777
         1       186        38      -4.1635566
         1       187        38      -2.7353873
         1       195        38       -4.015126
         1       196        38      -3.6652303
         1       108        39      -1.1825029
         1       109        39        -1.79994
         1       110        39      -1.2269953
         1       111        39      -1.0945425
         1       112        39      -1.0945425
         1       113        39      -1.0945425
         1       114        39      -1.0945425
         1       115        39      -0.7902331
         1       124        39    -0.047619704
         1       125        39     -0.87563396
         1       126        39     -0.69204855
         1       128        39       -1.127618