# WEL package for  MODFLOW-NWT, generated by Flopy.
     17237         0 
SPECIFY        0.1         50
     17237         0 # stress period 1
         1        29         2      -1.7653158
         1        30         2      -1.7653158
         1        31         2       -3.530797
         1        29         3      -1.7653158
         1        30         3      -1.7653158
         1        31         3       -3.530797
         1        29         4      -1.7653158
         1        30         4      -1.7653158
         1        32         4      -1.7654814
         1        33         4      -1.7654814
         1        34         4      -1.7655641
         1        35         4      -1.7655641
         1        43         4      -2.2483835
         1        44         4      -2.2483835
         1        45         4      -2.2484884
         1        46         4      -2.2484884
         1        29         5      -1.7653158
         1        30         5      -1.7653158
         1        32         5      -1.7654814
         1        33         5      -1.7654814
         1        34         5      -1.7655641
         1        35         5      -1.7655641
         1        43         5      -2.2483835
         1        44         5      -2.2483835
         1        45         5      -2.2484884
         1        46         5      -2.2484884
         1        29         6      -1.7653158
         1        30         6      -1.7653158
         1        32         6      -1.7654814
         1        33         6      -1.7654814
         1        34         6      -1.7655641
         1        35         6      -1.7655641
         1        36         6      -1.7656468
         1        37         6      -1.7656468
         1        40         6      -2.2481728
         1        41         6      -2.2481728
         1        42         6      -4.4965563
         1        45         6      -2.2484884
         1        46         6      -2.2484884
         1        29         7      -1.7653158
         1        30         7      -1.7653158
         1        32         7      -1.7654814
         1        33         7      -1.7654814
         1        34         7      -1.7655641
         1        35         7      -1.7655641
         1        36         7      -1.7656468
         1        37         7      -1.7656468
         1        40         7      -2.2481728
         1        41         7      -2.2481728
         1        42         7      -4.4965563
         1        45         7      -2.2484884
         1        46         7      -2.2484884
         1        27         8       -1.765233
         1        28         8       -1.765233
         1        29         8      -1.7653158
         1        30         8      -1.7653158
         1        32         8      -3.5309627
         1        33         8      -3.5309627
         1        34         8      -3.5311282
         1        35         8      -3.5311282
         1        36         8      -3.5312936
         1        37         8      -3.5312936
         1        40         8      -4.4963455
         1        41         8      -4.4963455
         1        42         8       -8.993113
         1        43         8       -0.449227
         1        44         8       -0.449227
         1        27         9       -1.765233
         1        28         9       -1.765233
         1        29         9      -1.7653158
         1        30         9      -1.7653158
         1        32         9      -1.7654814
         1        33         9      -1.7654814
         1        34         9      -1.7655641
         1        35         9      -1.7655641
         1        36         9      -1.7656468
         1        37         9      -1.7656468
         1        38         9      -1.7657295
         1        39         9      -1.7657295
         1        42         9      -4.4965563
         1        43         9      -2.2483835
         1        44         9      -2.2483835
         1        25        10         -3.5303
         1        26        10         -3.5303
         1        27        10       -3.530466
         1        28        10       -3.530466
         1        32        10      -1.7654814
         1        33        10      -1.7654814
         1        34        10      -1.7655641
         1        35        10      -1.7655641
         1        36        10      -1.7656468
         1        37        10      -1.7656468
         1        38        10      -1.7657295
         1        39        10      -1.7657295
         1        42        10      -4.4965563
         1        43        10      -2.2483835
         1        44        10      -2.2483835
         1        25        11        -1.76515
         1        26        11        -1.76515
         1        27        11       -1.765233
         1        28        11       -1.765233
         1        31        11      -0.3527266
         1        32        11      -1.7654814
         1        33        11      -1.7654814
         1        34        11      -1.7655641
         1        35        11      -1.7655641
         1        40        11      -2.2481728
         1        41        11      -2.2481728
         1        43        11      -2.9978445
         1        44        11      -2.9978445
         1        45        11      -2.2484884
         1        46        11      -2.2484884
         1        25        12        -1.76515
         1        26        12        -1.76515
         1        27        12       -1.765233
         1        28        12       -1.765233
         1        31        12      -0.3527266
         1        32        12      -1.7654814
         1        33        12      -1.7654814
         1        34        12      -1.7655641
         1        35        12      -1.7655641
         1        40        12      -2.2481728
         1        41        12      -2.2481728
         1        44        12      -2.9978445
         1        45        12      -2.2484884
         1        46        12      -2.2484884
         1        23        13      -5.2725286
         1        24        13      -5.2725286
         1        25        13       -5.272776
         1        26        13       -5.272776
         1        27        13      -5.2730246
         1        28        13      -5.2730246
         1        31        13      -10.547038
         1        32        13       -5.273766
         1        33        13       -5.273766
         1        34        13      -5.2740135
         1        35        13      -5.2740135
         1        36        13      -5.2742605
         1        37        13      -5.2742605
         1        38        13      -5.2745075
         1        39        13      -5.2745075
         1        40        13      -2.2023802
         1        41        13      -2.2023802
         1        42        13      -2.2024832
         1        43        13      -2.2024832
         1        47        13      -2.2027922
         1        48        13      -2.2027922
         1        23        14      -5.2725286
         1        24        14      -5.2725286
         1        25        14       -5.272776
         1        26        14       -5.272776
         1        27        14      -5.2730246
         1        28        14      -5.2730246
         1        31        14      -10.547038
         1        32        14       -5.273766
         1        33        14       -5.273766
         1        34        14      -5.2740135
         1        35        14      -5.2740135
         1        36        14      -5.2742605
         1        37        14      -5.2742605
         1        38        14      -5.2745075
         1        39        14      -5.2745075
         1        40        14      -2.2023802
         1        41        14      -2.2023802
         1        42        14      -2.2024832
         1        43        14      -2.2024832
         1        47        14      -2.2027922
         1        48        14      -2.2027922
         1        21        15       -5.272281
         1        22        15       -5.272281
         1        23        15      -5.2725286
         1        24        15      -5.2725286
         1        27        15      -5.2730246
         1        28        15      -5.2730246
         1        31        15      -10.547038
         1        32        15       -5.273766
         1        33        15       -5.273766
         1        34        15      -5.2740135
         1        35        15      -5.2740135
         1        36        15      -5.2742605
         1        37        15      -5.2742605
         1        38        15      -10.549015
         1        39        15      -10.549015
         1        40        15      -4.4047604
         1        41        15      -4.4047604
         1        42        15      -4.4049664
         1        43        15      -4.4049664
         1        44        15       -8.810346
         1        45        15     -0.43172708
         1        46        15     -0.43172708
         1        47        15      -4.4055843
         1        48        15      -4.4055843
         1        51        15      -4.4059954
         1        52        15      -4.4059954
         1        21        16       -5.272281
         1        22        16       -5.272281
         1        23        16      -5.2725286
         1        24        16      -5.2725286
         1        27        16      -5.2730246
         1        28        16      -5.2730246
         1        31        16      -10.547038
         1        32        16       -5.273766
         1        33        16       -5.273766
         1        34        16      -5.2740135
         1        35        16      -5.2740135
         1        36        16      -5.2742605
         1        37        16      -5.2742605
         1        38        16      -5.2745075
         1        39        16      -5.2745075
         1        44        16     -0.43170694
         1        47        16      -2.2027922
         1        48        16      -2.2027922
         1        49        16     -0.21588369
         1        50        16     -0.21588369
         1        51        16     -0.21589378
         1        52        16     -0.21589378
         1        21        17      -10.544562
         1        22        17      -10.544562
         1        23        17      -10.545057
         1        24        17      -10.545057
         1        27        17      -10.546049
         1        28        17      -10.546049
         1        34        17      -10.548027
         1        35        17      -10.548027
         1        36        17      -10.548521
         1        37        17      -10.548521
         1        38        17      -5.2745075
         1        39        17      -5.2745075
         1        44        17     -0.43170694
         1        47        17      -2.2027922
         1        48        17      -2.2027922
         1        49        17     -0.21588369
         1        50        17     -0.21588369
         1        51        17     -0.21589378
         1        52        17     -0.21589378
         1        21        18       -5.272281
         1        22        18       -5.272281
         1        27        18      -0.5236113
         1        28        18      -0.5236113
         1        31        18      -10.547038
         1        32        18       -5.273766
         1        33        18       -5.273766
         1        34        18      -5.2740135
         1        35        18      -5.2740135
         1        36        18      -5.2742605
         1        37        18      -5.2742605
         1        38        18      -5.2745075
         1        39        18      -5.2745075
         1        42        18      -2.2024832
         1        43        18      -2.2024832
         1        47        18      -2.2027922
         1        48        18      -2.2027922
         1        49        18      -2.2028947
         1        50        18      -2.2028947
         1        21        19       -5.272281
         1        22        19       -5.272281
         1        27        19      -0.5236113
         1        28        19      -0.5236113
         1        31        19      -10.547038
         1        32        19       -5.273766
         1        33        19       -5.273766
         1        34        19      -5.2740135
         1        35        19      -5.2740135
         1        36        19      -5.2742605
         1        37        19      -5.2742605
         1        38        19      -5.2745075
         1        39        19      -5.2745075
         1        42        19      -2.2024832
         1        43        19      -2.2024832
         1        47        19      -2.2027922
         1        48        19      -2.2027922
         1        49        19      -2.2028947
         1        50        19      -2.2028947
         1        21        20       -5.272281
         1        22        20       -5.272281
         1        23        20      -5.2725286
         1        24        20      -5.2725286
         1        29        20     -0.52363586
         1        30        20     -0.52363586
         1        31        20      -7.0313582
         1        32        20       -7.031688
         1        33        20       -7.031688
         1        34        20      -5.2740135
         1        35        20      -5.2740135
         1        36        20      -5.2742605
         1        37        20      -5.2742605
         1        38        20      -5.2745075
         1        39        20      -5.2745075
         1        40        20      -2.2023802
         1        41        20      -2.2023802
         1        47        20      -2.2027922
         1        48        20      -2.2027922
         1        49        20      -2.2028947
         1        50        20      -2.2028947
         1        53        20      -2.2031002
         1        54        20      -2.2031002
         1        73        20      -3.4000874
         1        74        20      -3.4000874
         1        21        21       -5.272281
         1        22        21       -5.272281
         1        23        21      -5.2725286
         1        24        21      -5.2725286
         1        29        21     -0.52363586
         1        30        21     -0.52363586
         1        31        21      -7.0313582
         1        32        21      -7.0313582
         1        33        21       -7.031688
         1        34        21      -5.2740135
         1        35        21      -5.2740135
         1        36        21      -5.2742605
         1        37        21      -5.2742605
         1        38        21      -5.2745075
         1        39        21      -5.2745075
         1        40        21      -2.2023802
         1        41        21      -2.2023802
         1        47        21      -2.2027922
         1        48        21      -2.2027922
         1        49        21      -2.2028947
         1        50        21      -2.2028947
         1        53        21      -2.2031002
         1        54        21      -2.2031002
         1        73        21      -3.4000874
         1        74        21      -3.4000874
         1        76        21        -4.53366
         1        77        21      -1.1547731
         1        78        21      -1.1547731
         1        79        21      -2.3096533
         1        21        22       -5.272281
         1        22        22       -5.272281
         1        23        22      -5.2725286
         1        24        22      -5.2725286
         1        29        22       -5.273272
         1        30        22       -5.273272
         1        31        22       -5.273519
         1        32        22       -5.273519
         1        33        22      -10.547532
         1        34        22      -5.2740135
         1        35        22      -5.2740135
         1        38        22      -5.2745075
         1        39        22      -5.2745075
         1        40        22      -2.2023802
         1        41        22      -2.2023802
         1        44        22       -8.810346
         1        45        22     -0.43172708
         1        46        22     -0.43172708
         1        47        22      -4.4055843
         1        48        22      -4.4055843
         1        49        22      -4.4057894
         1        50        22      -4.4057894
         1        53        22      -4.4062004
         1        54        22      -4.4062004
         1        71        22      -6.7998595
         1        72        22      -6.7998595
         1        75        22        -4.53366
         1        76        22        -4.53366
         1        77        22      -1.1547731
         1        78        22      -1.1547731
         1        79        22      -2.3096533
         1        21        23       -5.272281
         1        22        23       -5.272281
         1        23        23      -5.2725286
         1        24        23      -5.2725286
         1        29        23       -5.273272
         1        30        23       -5.273272
         1        31        23       -5.273519
         1        32        23       -5.273519
         1        33        23      -10.547532
         1        34        23      -5.2740135
         1        35        23      -5.2740135
         1        38        23      -5.2745075
         1        39        23      -5.2745075
         1        40        23      -2.2023802
         1        41        23      -2.2023802
         1        47        23      -2.2027922
         1        48        23      -2.2027922
         1        49        23      -2.2028947
         1        50        23      -2.2028947
         1        51        23      -2.2029977
         1        52        23      -2.2029977
         1        71        23      -3.3999298
         1        72        23      -3.3999298
         1        75        23       -3.400245
         1        76        23       -3.400245
         1        77        23      -1.1547731
         1        78        23      -1.1547731
         1        79        23     -0.23096532
         1        80        23      -1.1548799
         1        81        23      -1.1548799
         1        82        23      -1.1549335
         1        83        23      -1.1549335
         1        21        24      -10.544562
         1        22        24      -10.544562
         1        23        24      -10.545057
         1        24        24      -10.545057
         1        25        24      -10.545552
         1        26        24      -10.545552
         1        31        24      -10.547038
         1        32        24      -10.547038
         1        33        24      -21.095064
         1        34        24      -10.548027
         1        35        24      -10.548027
         1        38        24      -10.549015
         1        39        24      -10.549015
         1        40        24      -4.4047604
         1        41        24      -4.4047604
         1        42        24      -4.4049664
         1        43        24      -4.4049664
         1        47        24      -2.2027922
         1        48        24      -2.2027922
         1        49        24      -2.2028947
         1        50        24      -2.2028947
         1        51        24      -2.2029977
         1        52        24      -2.2029977
         1        71        24      -3.3999298
         1        72        24      -3.3999298
         1        75        24       -3.400245
         1        76        24       -3.400245
         1        77        24      -1.1547731
         1        78        24      -1.1547731
         1        79        24     -0.23096532
         1        80        24      -1.1548799
         1        81        24      -1.1548799
         1        82        24      -1.1549335
         1        83        24      -1.1549335
         1        21        25       -5.272281
         1        22        25       -5.272281
         1        23        25      -5.2725286
         1        24        25      -5.2725286
         1        25        25       -5.272776
         1        26        25       -5.272776
         1        31        25       -5.273519
         1        32        25       -5.273519
         1        33        25      -10.547532
         1        34        25      -5.2740135
         1        35        25      -5.2740135
         1        36        25      -5.2742605
         1        37        25      -5.2742605
         1        38        25      -0.5237586
         1        39        25      -0.5237586
         1        40        25      -2.2023802
         1        41        25      -2.2023802
         1        42        25      -2.2024832
         1        43        25      -2.2024832
         1        44        25       -4.405173
         1        49        25      -2.2028947
         1        50        25      -2.2028947
         1        51        25      -2.2029977
         1        52        25      -2.2029977
         1        55        25      -2.2032032
         1        56        25      -2.2032032
         1        69        25       -3.399772
         1        70        25       -3.399772
         1        71        25      -3.3999298
         1        72        25      -3.3999298
         1        75        25       -3.400245
         1        76        25       -3.400245
         1        79        25     -0.15397687
         1        80        25        -1.53984
         1        81        25        -1.53984
         1        21        26       -5.272281
         1        22        26       -5.272281
         1        23        26      -5.2725286
         1        24        26      -5.2725286
         1        25        26       -5.272776
         1        26        26       -5.272776
         1        31        26       -5.273519
         1        32        26       -5.273519
         1        33        26      -10.547532
         1        34        26      -5.2740135
         1        35        26      -5.2740135
         1        36        26      -5.2742605
         1        37        26      -5.2742605
         1        38        26      -0.5237586
         1        39        26      -0.5237586
         1        40        26      -2.2023802
         1        41        26      -2.2023802
         1        42        26      -2.2024832
         1        43        26      -2.2024832
         1        44        26       -4.405173
         1        49        26      -2.2028947
         1        50        26      -2.2028947
         1        51        26      -2.2029977
         1        52        26      -2.2029977
         1        55        26      -2.2032032
         1        56        26      -2.2032032
         1        69        26       -3.399772
         1        70        26       -3.399772
         1        71        26      -3.3999298
         1        72        26      -3.3999298
         1        75        26       -3.400245
         1        76        26       -3.400245
         1        79        26     -0.15397687
         1        80        26     -0.15397687
         1        81        26        -1.53984
         1        20        27      -14.497594
         1        21        27       -5.272281
         1        22        27       -5.272281
         1        25        27       -5.272776
         1        26        27       -5.272776
         1        29        27       -5.273272
         1        30        27       -5.273272
         1        31        27       -5.273519
         1        32        27       -5.273519
         1        33        27      -10.547532
         1        34        27      -5.2740135
         1        35        27      -5.2740135
         1        36        27      -5.2742605
         1        37        27      -5.2742605
         1        40        27      -2.2023802
         1        41        27      -2.2023802
         1        42        27      -2.2024832
         1        43        27      -2.2024832
         1        45        27      -2.2026892
         1        46        27      -2.2026892
         1        47        27      -2.2027922
         1        48        27      -2.2027922
         1        51        27     -0.21589378
         1        52        27     -0.21589378
         1        53        27     -0.21590383
         1        54        27     -0.21590383
         1        55        27      -2.2032032
         1        56        27      -2.2032032
         1        66        27      -3.3994563
         1        67        27      -3.3994563
         1        68        27      -6.7992277
         1        71        27      -3.3999298
         1        72        27      -3.3999298
         1        75        27       -3.400245
         1        76        27       -3.400245
         1        81        27      -2.3097599
         1        82        27      -1.1549335
         1        83        27      -1.1549335
         1        84        27      -2.3099737
         1        85        27      -2.3099737
         1        20        28      -14.497594
         1        21        28       -5.272281
         1        22        28       -5.272281
         1        25        28       -5.272776
         1        26        28       -5.272776
         1        29        28       -5.273272
         1        30        28       -5.273272
         1        31        28       -5.273519
         1        32        28       -5.273519
         1        33        28      -10.547532
         1        34        28      -5.2740135
         1        35        28      -5.2740135
         1        36        28      -5.2742605
         1        37        28      -5.2742605
         1        40        28      -2.2023802
         1        41        28      -2.2023802
         1        42        28      -2.2024832
         1        43        28      -2.2024832
         1        45        28      -2.2026892
         1        46        28      -2.2026892
         1        47        28      -2.2027922
         1        48        28      -2.2027922
         1        51        28     -0.21589378
         1        52        28     -0.21589378
         1        53        28     -0.21590383
         1        54        28     -0.21590383
         1        55        28      -2.2032032
         1        56        28      -2.2032032
         1        66        28      -3.3994563
         1        67        28      -3.3994563
         1        68        28      -6.7992277
         1        71        28      -3.3999298
         1        72        28      -3.3999298
         1        75        28       -3.400245
         1        76        28       -3.400245
         1        81        28      -2.3097599
         1        82        28      -1.1549335
         1        83        28      -1.1549335
         1        84        28      -1.1549869
         1        85        28      -1.1549869
         1        86        28      -1.1550403
         1        87        28      -1.1550403
         1        20        29       -9.665063
         1        21        29       -7.029708
         1        22        29       -7.029708
         1        29        29       -5.273272
         1        30        29       -5.273272
         1        31        29       -5.273519
         1        32        29       -5.273519
         1        33        29      -10.547532
         1        38        29      -5.2745075
         1        39        29      -5.2745075
         1        40        29      -2.2023802
         1        41        29      -2.2023802
         1        42        29      -2.2024832
         1        43        29      -2.2024832
         1        44        29       -4.405173
         1        45        29      -2.2026892
         1        46        29      -2.2026892
         1        47        29      -2.2027922
         1        48        29      -2.2027922
         1        49        29     -0.21588369
         1        50        29     -0.21588369
         1        51        29     -0.43178755
         1        52        29     -0.43178755
         1        55        29      -0.4318278
         1        56        29      -0.4318278
         1        66        29      -6.7989125
         1        67        29      -6.7989125
         1        68        29      -13.598455
         1        77        29      -2.3095462
         1        78        29      -2.3095462
         1        79        29      -2.3096533
         1        80        29      -2.3096533
         1        81        29      -4.6195197
         1        82        29       -2.309867
         1        83        29       -2.309867
         1        84        29      -1.1549869
         1        85        29      -1.1549869
         1        86        29      -1.1550403
         1        87        29      -1.1550403
         1        20        30       -9.665063
         1        21        30       -9.665063
         1        22        30       -7.029708
         1        29        30       -5.273272
         1        30        30       -5.273272
         1        31        30       -5.273519
         1        32        30       -5.273519
         1        33        30      -10.547532
         1        38        30      -5.2745075
         1        39        30      -5.2745075
         1        40        30      -2.2023802
         1        41        30      -2.2023802
         1        42        30      -2.2024832
         1        43        30      -2.2024832
         1        44        30       -4.405173
         1        45        30      -2.2026892
         1        46        30      -2.2026892
         1        47        30      -2.2027922
         1        48        30      -2.2027922
         1        49        30     -0.21588369