# WEL package for  MODFLOW-NWT, generated by Flopy.
     28914         0 
SPECIFY        0.1         50
     28914         0 # stress period 1
         1        29         2     -0.31149077
         1        30         2     -0.31149077
         1        31         2     -0.62298155
         1        29         3     -0.31149077
         1        30         3     -0.31149077
         1        31         3     -0.62298155
         1        29         4     -0.31149077
         1        30         4     -0.31149077
         1        31         4    -0.062298156
         1        32         4     -0.31149077
         1        33         4     -0.31149077
         1        34         4     -0.31149077
         1        35         4     -0.31149077
         1        36         4    -0.031149078
         1        37         4    -0.031149078
         1        43         4      -0.2859353
         1        44         4      -0.2859353
         1        45         4      -24.648388
         1        46         4      -24.648388
         1        29         5     -0.31149077
         1        30         5     -0.31149077
         1        31         5    -0.062298156
         1        32         5     -0.31149077
         1        33         5     -0.31149077
         1        34         5     -0.31149077
         1        35         5     -0.31149077
         1        36         5    -0.031149078
         1        37         5    -0.031149078
         1        43         5      -0.2859353
         1        44         5      -0.2859353
         1        45         5      -24.648388
         1        46         5      -24.648388
         1        29         6     -0.31149077
         1        30         6     -0.31149077
         1        31         6    -0.062298156
         1        32         6     -0.31149077
         1        33         6     -0.31149077
         1        34         6     -0.31149077
         1        35         6     -0.31149077
         1        36         6    -0.031149078
         1        37         6    -0.031149078
         1        38         6    -0.031149078
         1        39         6    -0.031149078
         1        40         6      -0.2859353
         1        41         6      -0.2859353
         1        42         6      -219.68713
         1        43         6    -0.028593533
         1        44         6    -0.028593533
         1        45         6      -0.2859353
         1        46         6      -0.2859353
         1        29         7     -0.31149077
         1        30         7     -0.31149077
         1        31         7    -0.062298156
         1        32         7     -0.31149077
         1        33         7     -0.31149077
         1        34         7     -0.31149077
         1        35         7     -0.31149077
         1        36         7    -0.031149078
         1        37         7    -0.031149078
         1        38         7    -0.031149078
         1        39         7    -0.031149078
         1        40         7      -0.2859353
         1        41         7      -0.2859353
         1        42         7      -219.68713
         1        43         7    -0.028593533
         1        44         7    -0.028593533
         1        45         7      -0.2859353
         1        46         7      -0.2859353
         1        27         8     -0.31149077
         1        28         8     -0.31149077
         1        29         8     -0.31149077
         1        30         8     -0.31149077
         1        31         8     -0.12459631
         1        32         8     -0.62298155
         1        33         8     -0.62298155
         1        34         8     -0.62298155
         1        35         8     -0.62298155
         1        36         8     -0.62298155
         1        37         8     -0.62298155
         1        38         8    -0.062298156
         1        39         8    -0.062298156
         1        40         8      -0.5718706
         1        41         8      -0.5718706
         1        42         8      -1.1437413
         1        43         8    -0.057187065
         1        44         8    -0.057187065
         1        45         8    -0.057187065
         1        46         8    -0.057187065
         1        27         9     -0.31149077
         1        28         9     -0.31149077
         1        29         9     -0.31149077
         1        30         9     -0.31149077
         1        31         9    -0.062298156
         1        32         9     -0.31149077
         1        33         9     -0.31149077
         1        34         9     -0.31149077
         1        35         9     -0.31149077
         1        36         9     -0.31149077
         1        37         9     -0.31149077
         1        38         9     -0.31149077
         1        39         9     -0.31149077
         1        40         9    -0.028593533
         1        41         9    -0.028593533
         1        42         9      -0.5718706
         1        43         9      -0.2859353
         1        44         9      -0.2859353
         1        45         9    -0.028593533
         1        46         9    -0.028593533
         1        25        10     -0.62298155
         1        26        10     -0.62298155
         1        27        10    -0.062298156
         1        28        10    -0.062298156
         1        29        10    -0.062298156
         1        30        10    -0.062298156
         1        31        10    -0.062298156
         1        32        10     -0.31149077
         1        33        10     -0.31149077
         1        34        10     -0.31149077
         1        35        10     -0.31149077
         1        36        10     -0.31149077
         1        37        10     -0.31149077
         1        38        10     -0.31149077
         1        39        10     -0.31149077
         1        40        10    -0.028593533
         1        41        10    -0.028593533
         1        42        10      -0.5718706
         1        43        10      -0.2859353
         1        44        10      -0.2859353
         1        45        10    -0.028593533
         1        46        10    -0.028593533
         1        25        11     -0.31149077
         1        26        11     -0.31149077
         1        27        11     -0.31149077
         1        28        11     -0.31149077
         1        29        11    -0.031149078
         1        30        11    -0.031149078
         1        31        11    -0.062298156
         1        32        11     -0.31149077
         1        33        11     -0.31149077
         1        34        11     -0.31149077
         1        35        11     -0.31149077
         1        36        11     -0.31149077
         1        37        11     -0.31149077
         1        38        11    -0.031149078
         1        39        11    -0.031149078
         1        40        11    -0.028593533
         1        41        11    -0.028593533
         1        42        11     -0.03812471
         1        43        11       -17.69943
         1        44        11       -17.69943
         1        45        11      -41.857716
         1        46        11      -41.857716
         1        47        11    -0.028593533
         1        48        11    -0.028593533
         1        25        12     -0.31149077
         1        26        12     -0.31149077
         1        27        12     -0.31149077
         1        28        12     -0.31149077
         1        29        12    -0.031149078
         1        30        12    -0.031149078
         1        31        12    -0.062298156
         1        32        12     -0.31149077
         1        33        12     -0.31149077
         1        34        12     -0.31149077
         1        35        12     -0.31149077
         1        36        12     -0.31149077
         1        37        12     -0.31149077
         1        38        12    -0.031149078
         1        39        12    -0.031149078
         1        40        12    -0.028593533
         1        41        12    -0.028593533
         1        42        12     -0.03812471
         1        43        12     -0.03812471
         1        44        12       -17.69943
         1        45        12      -41.857716
         1        46        12      -41.857716
         1        47        12    -0.028593533
         1        48        12    -0.028593533
         1        23        13      -0.3006688
         1        24        13      -0.3006688
         1        25        13      -0.3006688
         1        26        13      -0.3006688
         1        27        13      -0.3006688
         1        28        13      -0.3006688
         1        29        13    -0.030066881
         1        30        13    -0.030066881
         1        31        13      -0.6013376
         1        32        13      -0.3006688
         1        33        13      -0.3006688
         1        34        13      -0.3006688
         1        35        13      -0.3006688
         1        36        13    -0.030066881
         1        37        13    -0.030066881
         1        38        13      -0.3006688
         1        39        13      -0.3006688
         1        40        13     -0.29323658
         1        41        13     -0.29323658
         1        42        13     -0.02932366
         1        43        13     -0.02932366
         1        44        13      -23.620678
         1        45        13      -13.545679
         1        46        13      -13.545679
         1        47        13     -0.29323658
         1        48        13     -0.29323658
         1        49        13     -0.02932366
         1        50        13     -0.02932366
         1        23        14      -0.3006688
         1        24        14      -0.3006688
         1        25        14      -0.3006688
         1        26        14      -0.3006688
         1        27        14      -0.3006688
         1        28        14      -0.3006688
         1        29        14    -0.030066881
         1        30        14    -0.030066881
         1        31        14      -0.6013376
         1        32        14      -0.3006688
         1        33        14      -0.3006688
         1        34        14      -0.3006688
         1        35        14      -0.3006688
         1        36        14    -0.030066881
         1        37        14    -0.030066881
         1        38        14      -0.3006688
         1        39        14      -0.3006688
         1        40        14     -0.29323658
         1        41        14     -0.29323658
         1        42        14     -0.02932366
         1        43        14     -0.02932366
         1        44        14      -23.620678
         1        45        14      -13.545679
         1        46        14      -13.545679
         1        47        14     -0.29323658
         1        48        14     -0.29323658
         1        49        14     -0.02932366
         1        50        14     -0.02932366
         1        21        15      -0.3006688
         1        22        15      -0.3006688
         1        23        15    -0.030066881
         1        24        15    -0.030066881
         1        25        15    -0.030066881
         1        26        15    -0.030066881
         1        27        15      -0.3006688
         1        28        15      -0.3006688
         1        29        15    -0.030066881
         1        30        15    -0.030066881
         1        31        15      -0.6013376
         1        32        15      -0.3006688
         1        33        15      -0.3006688
         1        34        15      -0.3006688
         1        35        15      -0.3006688
         1        36        15      -0.3006688
         1        37        15      -0.3006688
         1        38        15    -0.060133763
         1        39        15    -0.060133763
         1        40        15     -0.05864732
         1        41        15     -0.05864732
         1        42        15     -0.58647317
         1        43        15     -0.58647317
         1        44        15      -652.14966
         1        45        15     -0.05864732
         1        46        15     -0.05864732
         1        47        15     -0.58647317
         1        48        15     -0.58647317
         1        49        15     -0.05864732
         1        50        15     -0.05864732
         1        51        15      -83.967636
         1        52        15      -83.967636
         1        21        16      -0.3006688
         1        22        16      -0.3006688
         1        23        16    -0.030066881
         1        24        16    -0.030066881
         1        25        16    -0.030066881
         1        26        16    -0.030066881
         1        27        16      -0.3006688
         1        28        16      -0.3006688
         1        29        16    -0.030066881
         1        30        16    -0.030066881
         1        31        16      -0.6013376
         1        32        16      -0.3006688
         1        33        16      -0.3006688
         1        34        16      -0.3006688
         1        35        16      -0.3006688
         1        36        16      -0.3006688
         1        37        16      -0.3006688
         1        38        16      -0.3006688
         1        39        16      -0.3006688
         1        40        16     -0.13488883
         1        41        16     -0.13488883
         1        42        16     -0.02932366
         1        43        16     -0.02932366
         1        44        16       -33.61057
         1        45        16     -0.02932366
         1        46        16     -0.02932366
         1        47        16     -0.29323658
         1        48        16     -0.29323658
         1        49        16     -0.02932366
         1        50        16     -0.02932366
         1        51        16      -4.1199055
         1        52        16      -4.1199055
         1        21        17      -0.6013376
         1        22        17      -0.6013376
         1        23        17      -0.6013376
         1        24        17      -0.6013376
         1        25        17    -0.060133763
         1        26        17    -0.060133763
         1        27        17      -0.6013376
         1        28        17      -0.6013376
         1        29        17    -0.060133763
         1        30        17    -0.060133763
         1        31        17    -0.120267525
         1        32        17    -0.060133763
         1        33        17    -0.060133763
         1        34        17      -0.6013376
         1        35        17      -0.6013376
         1        36        17      -0.6013376
         1        37        17      -0.6013376
         1        38        17      -0.3006688
         1        39        17      -0.3006688
         1        40        17     -0.13488883
         1        41        17     -0.13488883
         1        42        17     -0.02932366
         1        43        17     -0.02932366
         1        44        17       -33.61057
         1        45        17     -0.02932366
         1        46        17     -0.02932366
         1        47        17     -0.29323658
         1        48        17     -0.29323658
         1        49        17     -0.02932366
         1        50        17     -0.02932366
         1        51        17      -4.1199055
         1        52        17      -4.1199055
         1        21        18      -0.3006688
         1        22        18      -0.3006688
         1        23        18    -0.030066881
         1        24        18    -0.030066881
         1        25        18    -0.030066881
         1        26        18    -0.030066881
         1        27        18    -0.030066881
         1        28        18    -0.030066881
         1        29        18    -0.030066881
         1        30        18    -0.030066881
         1        31        18     -0.49309686
         1        32        18      -0.3006688
         1        33        18      -0.3006688
         1        34        18      -0.3006688
         1        35        18      -0.3006688
         1        36        18      -0.3006688
         1        37        18      -0.3006688
         1        38        18      -0.3006688
         1        39        18      -0.3006688
         1        40        18     -0.02932366
         1        41        18     -0.02932366
         1        42        18     -0.29323658
         1        43        18     -0.29323658
         1        44        18     -0.05864732
         1        45        18     -0.02932366
         1        46        18     -0.02932366
         1        47        18     -0.29323658
         1        48        18     -0.29323658
         1        49        18      -114.92105
         1        50        18      -114.92105
         1        51        18     -0.02932366
         1        52        18     -0.02932366
         1        21        19      -0.3006688
         1        22        19      -0.3006688
         1        23        19    -0.030066881
         1        24        19    -0.030066881
         1        25        19    -0.030066881
         1        26        19    -0.030066881
         1        27        19    -0.030066881
         1        28        19    -0.030066881
         1        29        19    -0.030066881
         1        30        19    -0.030066881
         1        31        19     -0.49309686
         1        32        19      -0.3006688
         1        33        19      -0.3006688
         1        34        19      -0.3006688
         1        35        19      -0.3006688
         1        36        19      -0.3006688
         1        37        19      -0.3006688
         1        38        19      -0.3006688
         1        39        19      -0.3006688
         1        40        19     -0.02932366
         1        41        19     -0.02932366
         1        42        19     -0.29323658
         1        43        19     -0.29323658
         1        44        19     -0.05864732
         1        45        19     -0.02932366
         1        46        19     -0.02932366
         1        47        19     -0.29323658
         1        48        19     -0.29323658
         1        49        19      -114.92105
         1        50        19      -114.92105
         1        51        19     -0.02932366
         1        52        19     -0.02932366
         1        21        20      -0.3006688
         1        22        20      -0.3006688
         1        23        20      -0.3006688
         1        24        20      -0.3006688
         1        25        20    -0.030066881
         1        26        20    -0.030066881
         1        27        20    -0.030066881
         1        28        20    -0.030066881
         1        29        20    -0.030066881
         1        30        20    -0.030066881
         1        31        20     -0.40089175
         1        32        20     -0.40089175
         1        33        20     -0.40089175
         1        34        20      -0.3006688
         1        35        20      -0.3006688
         1        36        20      -0.3006688
         1        37        20      -0.3006688
         1        38        20      -0.3006688
         1        39        20      -0.3006688
         1        40        20     -0.29323658
         1        41        20     -0.29323658
         1        42        20     -0.02932366
         1        43        20     -0.02932366
         1        44        20     -0.05864732
         1        45        20     -0.02932366
         1        46        20     -0.02932366
         1        47        20     -0.29323658
         1        48        20     -0.29323658
         1        49        20     -0.29323658
         1        50        20     -0.29323658
         1        51        20     -0.02932366
         1        52        20     -0.02932366
         1        53        20     -0.29323658
         1        54        20     -0.29323658
         1        73        20     -0.28389916
         1        74        20     -0.28389916
         1        21        21      -0.3006688
         1        22        21      -0.3006688
         1        23        21      -0.3006688
         1        24        21      -0.3006688
         1        25        21    -0.030066881
         1        26        21    -0.030066881
         1        27        21    -0.030066881
         1        28        21    -0.030066881
         1        29        21    -0.030066881
         1        30        21    -0.030066881
         1        31        21     -0.40089175
         1        32        21     -0.40089175
         1        33        21     -0.40089175
         1        34        21      -0.3006688
         1        35        21      -0.3006688
         1        36        21      -0.3006688
         1        37        21      -0.3006688
         1        38        21      -0.3006688
         1        39        21      -0.3006688
         1        40        21     -0.29323658
         1        41        21     -0.29323658
         1        42        21     -0.02932366
         1        43        21     -0.02932366
         1        44        21     -0.05864732
         1        45        21     -0.02932366
         1        46        21     -0.02932366
         1        47        21     -0.29323658
         1        48        21     -0.29323658
         1        49        21     -0.29323658
         1        50        21     -0.29323658
         1        51        21     -0.02932366
         1        52        21     -0.02932366
         1        53        21     -0.29323658
         1        54        21     -0.29323658
         1        73        21     -0.28389916
         1        74        21     -0.28389916
         1        76        21     -0.37853223
         1        77        21     -0.26603448
         1        78        21     -0.26603448
         1        79        21     -0.53206897
         1        80        21    -0.026603447
         1        81        21    -0.026603447
         1        21        22      -0.3006688
         1        22        22      -0.3006688
         1        23        22    -0.030066881
         1        24        22    -0.030066881
         1        25        22    -0.030066881
         1        26        22    -0.030066881
         1        27        22    -0.030066881
         1        28        22    -0.030066881
         1        29        22      -0.3006688
         1        30        22      -0.3006688
         1        31        22      -0.3006688
         1        32        22      -0.3006688
         1        33        22      -0.6013376
         1        34        22      -0.3006688
         1        35        22      -0.3006688
         1        36        22    -0.030066881
         1        37        22    -0.030066881
         1        38        22      -0.3006688
         1        39        22      -0.3006688
         1        40        22     -0.29323658
         1        41        22     -0.29323658
         1        42        22     -0.02932366
         1        43        22     -0.02932366
         1        44        22        -671.956
         1        45        22     -0.05864732
         1        46        22     -0.05864732
         1        47        22     -0.58647317
         1        48        22     -0.58647317
         1        49        22     -0.58647317
         1        50        22     -0.58647317
         1        51        22     -0.05864732
         1        52        22     -0.05864732
         1        53        22     -0.58647317
         1        54        22     -0.58647317
         1        71        22      -0.5677983
         1        72        22      -0.5677983
         1        73        22    -0.056779835
         1        74        22    -0.056779835
         1        75        22     -0.37853223
         1        76        22     -0.37853223
         1        77        22     -0.26603448
         1        78        22     -0.26603448
         1        79        22     -0.53206897
         1        80        22    -0.026603447
         1        81        22    -0.026603447
         1        21        23      -0.3006688
         1        22        23      -0.3006688
         1        23        23    -0.030066881
         1        24        23    -0.030066881
         1        25        23    -0.030066881
         1        26        23    -0.030066881
         1        27        23    -0.030066881
         1        28        23    -0.030066881
         1        29        23      -0.3006688
         1        30        23      -0.3006688
         1        31        23      -0.3006688
         1        32        23      -0.3006688
         1        33        23      -0.6013376
         1        34        23      -0.3006688
         1        35        23      -0.3006688
         1        36        23    -0.030066881
         1        37        23    -0.030066881
         1        38        23      -0.3006688
         1        39        23      -0.3006688
         1        40        23     -0.29323658
         1        41        23     -0.29323658
         1        42        23     -0.02932366
         1        43        23     -0.02932366
         1        44        23     -0.05864732
         1        45        23      -0.3708175
         1        46        23      -0.3708175
         1        47        23      -20.510029
         1        48        23      -20.510029
         1        49        23     -0.29323658
         1        50        23     -0.29323658
         1        51        23     -0.29323658
         1        52        23     -0.29323658
         1        53        23     -0.02932366
         1        54        23     -0.02932366
         1        71        23     -0.28389916
         1        72        23     -0.28389916
         1        73        23    -0.028389918
         1        74        23    -0.028389918
         1        75        23     -0.28389916
         1        76        23     -0.28389916
         1        77        23     -0.26603448
         1        78        23     -0.26603448
         1        79        23    -0.053206895
         1        80        23     -0.26603448
         1        81        23     -0.26603448
         1        82        23     -0.26603448
         1        83        23     -0.26603448
         1        21        24      -0.6013376
         1        22        24      -0.6013376
         1        23        24      -0.6013376
         1        24        24      -0.6013376
         1        25        24      -0.6013376
         1        26        24      -0.6013376
         1        27        24    -0.060133763
         1        28        24    -0.060133763
         1        29        24      -1665.8854
         1        30        24      -1665.8854
         1        31        24      -0.6013376
         1        32        24      -0.6013376
         1        33        24      -1.2026752
         1        34        24      -0.6013376
         1        35        24      -0.6013376
         1        36        24    -0.060133763
         1        37        24    -0.060133763
         1        38        24      -0.6013376
         1        39        24      -0.6013376
         1        40        24     -0.58647317
         1        41        24     -0.58647317
         1        42        24     -0.58647317
         1        43        24     -0.58647317
         1        44        24     -0.05864732
         1        45        24      -0.3708175
         1        46        24      -0.3708175
         1        47        24      -20.510029
         1        48        24      -20.510029
         1        49        24     -0.29323658
         1        50        24     -0.29323658
         1        51        24     -0.29323658
         1        52        24     -0.29323658
         1        53        24     -0.02932366
         1        54        24     -0.02932366
         1        71        24     -0.28389916
         1        72        24     -0.28389916
         1        73        24    -0.028389918
         1        74        24    -0.028389918
         1        75        24     -0.28389916
         1        76        24     -0.28389916
         1        77        24     -0.26603448
         1        78        24     -0.26603448
         1        79        24    -0.053206895
         1        80        24     -0.26603448
         1        81        24     -0.26603448
         1        82        24     -0.26603448
         1        83        24     -0.26603448
         1        21        25      -0.3006688
         1        22        25      -0.3006688
         1        23        25      -0.3006688
         1        24        25      -0.3006688
         1        25        25      -0.3006688
         1        26        25      -0.3006688
         1        27        25    -0.030066881
         1        28        25    -0.030066881
         1        29        25      -0.3006688
         1        30        25      -0.3006688
         1        31        25      -0.3006688
         1        32        25      -0.3006688
         1        33        25      -0.6013376
         1        34        25      -0.3006688
         1        35        25      -0.3006688
         1        36        25      -0.3006688
         1        37        25      -0.3006688
         1        38        25    -0.030066881
         1        39        25    -0.030066881
         1        40        25     -0.29323658
         1        41        25     -0.29323658
         1        42        25     -0.02932366
         1        43        25     -0.02932366
         1        44        25     -0.58647317