# UPW package for  MODFLOW-NWT, generated by Flopy.
         0    -1E+30         0         0 
         1
         0
   1.000000E+00
         1
         0
INTERNAL               1 (342E15.6) -1 #hk layer 1                    
   8.640000E-01   8.640000E-01   8.640000E-01   8.640000E-01   8.640000E-01   8.640000E-01   8.640000E-01   8.640000E-01   8.640000E-01   8.640000E-01   8.640000E-01   8.640000E-01   8.640000E-01   8.640000E-01   8.640000E-01   8.640000E-01   8.640000E-01   8.640000E-01   8.640000E-01   8.640000E-01   8.640000E-01   8.640000E-01   8.640000E-01   8.640000E-01   8.640000E-01   8.640000E-01   8.640000E-01   8.640000E-01   8.640000E-01   8.640000E-01   8.640000E-01   8.640000E-01   8.640000E-01   8.640000E-01   8.640000E-01   8.640000E-01   8.640000E-01   8.640000E-01   8.640000E-01   8.640000E-01   8.640000E-01   8.640000E-01   8.640000E-01   8.640000E-01   8.640000E-01   8.640000E-01   8.640000E-01   8.640000E-01   8.640000E-01   8.640000E-01   8.640000E-01   8.640000E-01   8.640000E-01   8.640000E-01   8.640000E-01   8.640000E-01   8.640000E-01   8.640000E-01   8.640000E-01   8.640000E-01   8.640000E-01   8.640000E-01   8.640000E-01   8.640000E-01   8.640000E-01   8.640000E-01   8.640000E-01   8.640000E-01   8.640000E-01   8.640000E-01   8.640000E-01   8.640000E-01   8.640000E-01   8.640000E-01   8.640000E-01   8.640000E-01   8.640000E-01   8.640000E-01   8.640000E-01   8.640000E-01   8.640000E-01   8.640000E-01   8.640000E-01   8.640000E-01   8.640000E-01   8.640000E-01   8.640000E-01   8.640000E-01   8.640000E-01   8.640000E-01   8.640000E-01   8.640000E-01   8.640000E-01   8.640000E-01   8.640000E-01   8.640000E-01   8.640000E-01   8.640000E-01   8.640000E-01   8.640000E-01   8.640000E-01   8.640000E-01   8.640000E-01   8.640000E-01   8.640000E-01   8.640000E-01   8.640000E-01   8.640000E-01   8.640000E-01   8.640000E-01   8.640000E-01   8.640000E-01   8.640000E-01   8.640000E-01   8.640000E-01   8.640000E-01   8.640000E-01   8.640000E-01   8.640000E-01   8.640000E-01   8.640000E-01   8.640000E-01   8.640000E-01   8.640000E-01   8.640000E-01   8.640000E-01   8.640000E-01   8.640000E-01   8.640000E-01   8.640000E-01   8.640000E-01   8.640000E-01   8.640000E-01   8.640000E-01   8.640000E-01   8.640000E-01   8.640000E-01   8.640000E-01   8.640000E-01   8.640000E-01   8.640000E-01   8.640000E-01   8.640000E-01   8.640000E-01   8.640000E-01   8.640000E-01   8.640000E-01   8.640000E-01   8.640000E-01   8.640000E-01   8.640000E-01   8.640000E-01   8.640000E-01   8.640000E-01   8.640000E-01   8.640000E-01   8.640000E-01   8.640000E-01   8.640000E-01   8.640000E-01   8.640000E-01   8.640000E-01   8.640000E-01   8.640000E-01   8.640000E-01   8.640000E-01   8.640000E-01   8.640000E-01   8.640000E-01   8.640000E-01   8.640000E-01   8.640000E-01   8.640000E-01   8.640000E-01   8.640000E-01   8.640000E-01   8.640000E-01   8.640000E-01   8.640000E-01   8.640000E-01   8.640000E-01   8.640000E-01   8.640000E-01   8.640000E-01   8.640000E-01   8.640000E-01   8.640000E-01   8.640000E-01   8.640000E-01   8.640000E-01   8.640000E-01   8.640000E-01   8.640000E-01   8.640000E-01   8.640000E-01   8.640000E-01   8.640000E-01   8.640000E-01   8.640000E-01   8.640000E-01   8.640000E-01   8.640000E-01   8.640000E-01   8.640000E-01   8.640000E-01   8.640000E-01   8.640000E-01   8.640000E-01   8.640000E-01   8.640000E-01   8.640000E-01   8.640000E-01   8.640000E-01   8.640000E-01   8.640000E-01   8.640000E-01   8.640000E-01   8.640000E-01   8.640000E-01   8.640000E-01   8.640000E-01   8.640000E-01   8.640000E-01   8.640000E-01   8.640000E-01   8.640000E-01   8.640000E-01   8.640000E-01   8.640000E-01   8.640000E-01   8.640000E-01   8.640000E-01   8.640000E-01   8.640000E-01   8.640000E-01   8.640000E-01   8.640000E-01   8.640000E-01   8.640000E-01   8.640000E-01   8.640000E-01   8.640000E-01   8.640000E-01   8.640000E-01   8.640000E-01   8.640000E-01   8.640000E-01   8.640000E-01   8.640000E-01   8.640000E-01   8.640000E-01   8.640000E-01   8.640000E-01   8.640000E-01   8.640000E-01   8.640000E-01   8.640000E-01   8.640000E-01   8.640000E-01   8.640000E-01   8.640000E-01   8.640000E-01   8.640000E-01   8.640000E-01   8.640000E-01   8.640000E-01   8.640000E-01   8.640000E-01   8.640000E-01   8.640000E-01   8.640000E-01   8.640000E-01   8.640000E-01   8.640000E-01   8.640000E-01   8.640000E-01   8.640000E-01   8.640000E-01   8.640000E-01   8.640000E-01   8.640000E-01   8.640000E-01   8.640000E-01   8.640000E-01   8.640000E-01   8.640000E-01   8.640000E-01   8.640000E-01   8.640000E-01   8.640000E-01   8.640000E-01   8.640000E-01   8.640000E-01   8.640000E-01   8.640000E-01   8.640000E-01   8.640000E-01   8.640000E-01   8.640000E-01   8.640000E-01   8.640000E-01   8.640000E-01   8.640000E-01   8.640000E-01   8.640000E-01   8.640000E-01   8.640000E-01   8.640000E-01   8.640000E-01   8.640000E-01   8.640000E-01   8.640000E-01   8.640000E-01   8.640000E-01   8.640000E-01   8.640000E-01   8.640000E-01   8.640000E-01   8.640000E-01   8.640000E-01   8.640000E-01   8.640000E-01   8.640000E-01   8.640000E-01   8.640000E-01   8.640000E-01   8.640000E-01   8.640000E-01   8.640000E-01   8.640000E-01   8.640000E-01   8.640000E-01   8.640000E-01   8.640000E-01   8.640000E-01   8.640000E-01   8.640000E-01   8.640000E-01   8.640000E-01   8.640000E-01   8.640000E-01   8.640000E-01
   8.640000E-01   8.640000E-01   8.640000E-01   8.640000E-01   8.640000E-01   8.640000E-01   8.640000E-01   8.640000E-01   8.640000E-01   8.640000E-01   8.640000E-01   8.640000E-01   8.640000E-01   8.640000E-01   8.640000E-01   8.640000E-01   8.640000E-01   8.640000E-01   8.640000E-01   8.640000E-01   8.640000E-01   8.640000E-01   8.640000E-01   8.640000E-01   8.640000E-01   8.640000E-01   8.640000E-01   8.640000E-01   8.640000E-01   8.640000E-01   8.640000E-01   8.640000E-01   8.640000E-01   8.640000E-01   8.640000E-01   8.640000E-01   8.640000E-01   8.640000E-01   8.640000E-01   8.640000E-01   8.640000E-01   8.640000E-01   8.640000E-01   8.640000E-01   8.640000E-01   8.640000E-01   8.640000E-01   8.640000E-01   8.640000E-01   8.640000E-01   8.640000E-01   8.640000E-01   8.640000E-01   8.640000E-01   8.640000E-01   8.640000E-01   8.640000E-01   8.640000E-01   8.640000E-01   8.640000E-01   8.640000E-01   8.640000E-01   8.640000E-01   8.640000E-01   8.640000E-01   8.640000E-01   8.640000E-01   8.640000E-01   8.640000E-01   8.640000E-01   8.640000E-01   8.640000E-01   8.640000E-01   8.640000E-01   8.640000E-01   8.640000E-01   8.640000E-01   8.640000E-01   8.640000E-01   8.640000E-01   8.640000E-01   8.640000E-01   8.640000E-01   8.640000E-01   8.640000E-01   8.640000E-01   8.640000E-01   8.640000E-01   8.640000E-01   8.640000E-01   8.640000E-01   8.640000E-01   8.640000E-01   8.640000E-01   8.640000E-01   8.640000E-01   8.640000E-01   8.640000E-01   8.640000E-01   8.640000E-01   8.640000E-01   8.640000E-01   8.640000E-01   8.640000E-01   8.640000E-01   8.640000E-01   8.640000E-01   8.640000E-01   8.640000E-01   8.640000E-01   8.640000E-01   8.640000E-01   8.640000E-01   8.640000E-01   8.640000E-01   8.640000E-01   8.640000E-01   8.640000E-01   8.640000E-01   8.640000E-01   8.640000E-01   8.640000E-01   8.640000E-01   8.640000E-01   8.640000E-01   8.640000E-01   8.640000E-01   8.640000E-01   8.640000E-01   8.640000E-01   8.640000E-01   8.640000E-01   8.640000E-01   8.640000E-01   8.640000E-01   8.640000E-01   8.640000E-01   8.640000E-01   8.640000E-01   8.640000E-01   8.640000E-01   8.640000E-01   8.640000E-01   8.640000E-01   8.640000E-01   8.640000E-01   8.640000E-01   8.640000E-01   8.640000E-01   8.640000E-01   8.640000E-01   8.640000E-01   8.640000E-01   8.640000E-01   8.640000E-01   8.640000E-01   8.640000E-01   8.640000E-01   8.640000E-01   8.640000E-01   8.640000E-01   8.640000E-01   8.640000E-01   8.640000E-01   8.640000E-01   8.640000E-01   8.640000E-01   8.640000E-01   8.640000E-01   8.640000E-01   8.640000E-01   8.640000E-01   8.640000E-01   8.640000E-01   8.640000E-01   8.640000E-01   8.640000E-01   8.640000E-01   8.640000E-01   8.640000E-01   8.640000E-01   8.640000E-01   8.640000E-01   8.640000E-01   8.640000E-01   8.640000E-01   8.640000E-01   8.640000E-01   8.640000E-01   8.640000E-01   8.640000E-01   8.640000E-01   8.640000E-01   8.640000E-01   8.640000E-01   8.640000E-01   8.640000E-01   8.640000E-01   8.640000E-01   8.640000E-01   8.640000E-01   8.640000E-01   8.640000E-01   8.640000E-01   8.640000E-01   8.640000E-01   8.640000E-01   8.640000E-01   8.640000E-01   8.640000E-01   8.640000E-01   8.640000E-01   8.640000E-01   8.640000E-01   8.640000E-01   8.640000E-01   8.640000E-01   8.640000E-01   8.640000E-01   8.640000E-01   8.640000E-01   8.640000E-01   8.640000E-01   8.640000E-01   8.640000E-01   8.640000E-01   8.640000E-01   8.640000E-01   8.640000E-01   8.640000E-01   8.640000E-01   8.640000E-01   8.640000E-01   8.640000E-01   8.640000E-01   8.640000E-01   8.640000E-01   8.640000E-01   8.640000E-01   8.640000E-01   8.640000E-01   8.640000E-01   8.640000E-01   8.640000E-01   8.640000E-01   8.640000E-01   8.640000E-01   8.640000E-01   8.640000E-01   8.640000E-01   8.640000E-01   8.640000E-01   8.640000E-01   8.640000E-01   8.640000E-01   8.640000E-01   8.640000E-01   8.640000E-01   8.640000E-01   8.640000E-01   8.640000E-01   8.640000E-01   8.640000E-01   8.640000E-01   8.640000E-01   8.640000E-01   8.640000E-01   8.640000E-01   8.640000E-01   8.640000E-01   8.640000E-01   8.640000E-01   8.640000E-01   8.640000E-01   8.640000E-01   8.640000E-01   8.640000E-01   8.640000E-01   8.640000E-01   8.640000E-01   8.640000E-01   8.640000E-01   8.640000E-01   8.640000E-01   8.640000E-01   8.640000E-01   8.640000E-01   8.640000E-01   8.640000E-01   8.640000E-01   8.640000E-01   8.640000E-01   8.640000E-01   8.640000E-01   8.640000E-01   8.640000E-01   8.640000E-01   8.640000E-01   8.640000E-01   8.640000E-01   8.640000E-01   8.640000E-01   8.640000E-01   8.640000E-01   8.640000E-01   8.640000E-01   8.640000E-01   8.640000E-01   8.640000E-01   8.640000E-01   8.640000E-01   8.640000E-01   8.640000E-01   8.640000E-01   8.640000E-01   8.640000E-01   8.640000E-01   8.640000E-01   8.640000E-01   8.640000E-01   8.640000E-01   8.640000E-01   8.640000E-01   8.640000E-01   8.640000E-01   8.640000E-01   8.640000E-01   8.640000E-01   8.640000E-01   8.640000E-01   8.640000E-01   8.640000E-01   8.640000E-01   8.640000E-01   8.640000E-01   8.640000E-01   8.640000E-01   8.640000E-01   8.640000E-01   8.640000E-01   8.640000E-01   8.640000E-01
   8.640000E-01   8.640000E-01   8.640000E-01   8.640000E-01   8.640000E-01   8.640000E-01   8.640000E-01   8.640000E-01   8.640000E-01   8.640000E-01   8.640000E-01   8.640000E-01   8.640000E-01   8.640000E-01   8.640000E-01   8.640000E-01   8.640000E-01   8.640000E-01   8.640000E-01   8.640000E-01   8.640000E-01   8.640000E-01   8.640000E-01   8.640000E-01   8.640000E-01   8.640000E-01   8.640000E-01   8.640000E-01   8.640000E-01   8.640000E-01   8.640000E-01   8.640000E-01   8.640000E-01   8.640000E-01   8.640000E-01   8.640000E-01   8.640000E-01   8.640000E-01   8.640000E-01   8.640000E-01   8.640000E-01   8.640000E-01   8.640000E-01   8.640000E-01   8.640000E-01   8.640000E-01   8.640000E-01   8.640000E-01   8.640000E-01   8.640000E-01   8.640000E-01   8.640000E-01   8.640000E-01   8.640000E-01   8.640000E-01   8.640000E-01   8.640000E-01   8.640000E-01   8.640000E-01   8.640000E-01   8.640000E-01   8.640000E-01   8.640000E-01   8.640000E-01   8.640000E-01   8.640000E-01   8.640000E-01   8.640000E-01   8.640000E-01   8.640000E-01   8.640000E-01   8.640000E-01   8.640000E-01   8.640000E-01   8.640000E-01   8.640000E-01   8.640000E-01   8.640000E-01   8.640000E-01   8.640000E-01   8.640000E-01   8.640000E-01   8.640000E-01   8.640000E-01   8.640000E-01   8.640000E-01   8.640000E-01   8.640000E-01   8.640000E-01   8.640000E-01   8.640000E-01   8.640000E-01   8.640000E-01   8.640000E-01   8.640000E-01   8.640000E-01   8.640000E-01   8.640000E-01   8.640000E-01   8.640000E-01   8.640000E-01   8.640000E-01   8.640000E-01   8.640000E-01   8.640000E-01   8.640000E-01   8.640000E-01   8.640000E-01   8.640000E-01   8.640000E-01   8.640000E-01   8.640000E-01   8.640000E-01   8.640000E-01   8.640000E-01   8.640000E-01   8.640000E-01   8.640000E-01   8.640000E-01   8.640000E-01   8.640000E-01   8.640000E-01   8.640000E-01   8.640000E-01   8.640000E-01   8.640000E-01   8.640000E-01   8.640000E-01   8.640000E-01   8.640000E-01   8.640000E-01   8.640000E-01   8.640000E-01   8.640000E-01   8.640000E-01   8.640000E-01   8.640000E-01   8.640000E-01   8.640000E-01   8.640000E-01   8.640000E-01   8.640000E-01   8.640000E-01   8.640000E-01   8.640000E-01   8.640000E-01   8.640000E-01   8.640000E-01   8.640000E-01   8.640000E-01   8.640000E-01   8.640000E-01   8.640000E-01   8.640000E-01   8.640000E-01   8.640000E-01   8.640000E-01   8.640000E-01   8.640000E-01   8.640000E-01   8.640000E-01   8.640000E-01   8.640000E-01   8.640000E-01   8.640000E-01   8.640000E-01   8.640000E-01   8.640000E-01   8.640000E-01   8.640000E-01   8.640000E-01   8.640000E-01   8.640000E-01   8.640000E-01   8.640000E-01   8.640000E-01   8.640000E-01   8.640000E-01   8.640000E-01   8.640000E-01   8.640000E-01   8.640000E-01   8.640000E-01   8.640000E-01   8.640000E-01   8.640000E-01   8.640000E-01   8.640000E-01   8.640000E-01   8.640000E-01   8.640000E-01   8.640000E-01   8.640000E-01   8.640000E-01   8.640000E-01   8.640000E-01   8.640000E-01   8.640000E-01   8.640000E-01   8.640000E-01   8.640000E-01   8.640000E-01   8.640000E-01   8.640000E-01   8.640000E-01   8.640000E-01   8.640000E-01   8.640000E-01   8.640000E-01   8.640000E-01   8.640000E-01   8.640000E-01   8.640000E-01   8.640000E-01   8.640000E-01   8.640000E-01   8.640000E-01   8.640000E-01   8.640000E-01   8.640000E-01   8.640000E-01   8.640000E-01   8.640000E-01   8.640000E-01   8.640000E-01   8.640000E-01   8.640000E-01   8.640000E-01   8.640000E-01   8.640000E-01   8.640000E-01   8.640000E-01   8.640000E-01   8.640000E-01   8.640000E-01   8.640000E-01   8.640000E-01   8.640000E-01   8.640000E-01   8.640000E-01   8.640000E-01   8.640000E-01   8.640000E-01   8.640000E-01   8.640000E-01   8.640000E-01   8.640000E-01   8.640000E-01   8.640000E-01   8.640000E-01   8.640000E-01   8.640000E-01   8.640000E-01   8.640000E-01   8.640000E-01   8.640000E-01   8.640000E-01   8.640000E-01   8.640000E-01   8.640000E-01   8.640000E-01   8.640000E-01   8.640000E-01   8.640000E-01   8.640000E-01   8.640000E-01   8.640000E-01   8.640000E-01   8.640000E-01   8.640000E-01   8.640000E-01   8.640000E-01   8.640000E-01   8.640000E-01   8.640000E-01   8.640000E-01   8.640000E-01   8.640000E-01   8.640000E-01   8.640000E-01   8.640000E-01   8.640000E-01   8.640000E-01   8.640000E-01   8.640000E-01   8.640000E-01   8.640000E-01   8.640000E-01   8.640000E-01   8.640000E-01   8.640000E-01   8.640000E-01   8.640000E-01   8.640000E-01   8.640000E-01   8.640000E-01   8.640000E-01   8.640000E-01   8.640000E-01   8.640000E-01   8.640000E-01   8.640000E-01   8.640000E-01   8.640000E-01   8.640000E-01   8.640000E-01   8.640000E-01   8.640000E-01   8.640000E-01   8.640000E-01   8.640000E-01   8.640000E-01   8.640000E-01   8.640000E-01   8.640000E-01   8.640000E-01   8.640000E-01   8.640000E-01   8.640000E-01   8.640000E-01   8.640000E-01   8.640000E-01   8.640000E-01   8.640000E-01   8.640000E-01   8.640000E-01   8.640000E-01   8.640000E-01   8.640000E-01   8.640000E-01   8.640000E-01   8.640000E-01   8.640000E-01   8.640000E-01   8.640000E-01   8.640000E-01   8.640000E-01   8.640000E-01   8.640000E-01   8.640000E-01   8.640000E-01   8.640000E-01
   8.640000E-01   8.640000E-01   8.640000E-01   8.640000E-01   8.640000E-01   8.640000E-01   8.640000E-01   8.640000E-01   8.640000E-01   8.640000E-01   8.640000E-01   8.640000E-01   8.640000E-01   8.640000E-01   8.640000E-01   8.640000E-01   8.640000E-01   8.640000E-01   8.640000E-01   8.640000E-01   8.640000E-01   8.640000E-01   8.640000E-01   8.640000E-01   8.640000E-01   8.640000E-01   8.640000E-01   8.640000E-01   8.640000E-01   8.640000E-01   8.640000E-01   8.640000E-01   8.640000E-01   8.640000E-01   8.640000E-01   8.640000E-01   8.640000E-01   8.640000E-01   8.640000E-01   8.640000E-01   8.640000E-01   8.640000E-01   8.640000E-01   8.640000E-01   8.640000E-01   8.640000E-01   8.640000E-01   8.640000E-01   8.640000E-01   8.640000E-01   8.640000E-01   8.640000E-01   8.640000E-01   8.640000E-01   8.640000E-01   8.640000E-01   8.640000E-01   8.640000E-01   8.640000E-01   8.640000E-01   8.640000E-01   8.640000E-01   8.640000E-01   8.640000E-01   8.640000E-01   8.640000E-01   8.640000E-01   8.640000E-01   8.640000E-01   8.640000E-01   8.640000E-01   8.640000E-01   8.640000E-01   8.640000E-01   8.640000E-01   8.640000E-01   8.640000E-01   8.640000E-01   8.640000E-01   8.640000E-01   8.640000E-01   8.640000E-01   8.640000E-01   8.640000E-01   8.640000E-01   8.640000E-01   8.640000E-01   8.640000E-01   8.640000E-01   8.640000E-01   8.640000E-01   8.640000E-01   8.640000E-01   8.640000E-01   8.640000E-01   8.640000E-01   8.640000E-01   8.640000E-01   8.640000E-01   8.640000E-01   8.640000E-01   8.640000E-01   8.640000E-01   8.640000E-01   8.640000E-01   8.640000E-01   8.640000E-01   8.640000E-01   8.640000E-01   8.640000E-01   8.640000E-01   8.640000E-01   8.640000E-01   8.640000E-01   8.640000E-01   8.640000E-01   8.640000E-01   8.640000E-01   8.640000E-01   8.640000E-01   8.640000E-01   8.640000E-01   8.640000E-01   8.640000E-01   8.640000E-01   8.640000E-01   8.640000E-01   8.640000E-01   8.640000E-01   8.640000E-01   8.640000E-01   8.640000E-01   8.640000E-01   8.640000E-01   8.640000E-01   8.640000E-01   8.640000E-01   8.640000E-01   8.640000E-01   8.640000E-01   8.640000E-01   8.640000E-01   8.640000E-01   8.640000E-01   8.640000E-01   8.640000E-01   8.640000E-01   8.640000E-01   8.640000E-01   8.640000E-01   8.640000E-01   8.640000E-01   8.640000E-01   8.640000E-01   8.640000E-01   8.640000E-01   8.640000E-01   8.640000E-01   8.640000E-01   8.640000E-01   8.640000E-01   8.640000E-01   8.640000E-01   8.640000E-01   8.640000E-01   8.640000E-01   8.640000E-01   8.640000E-01   8.640000E-01   8.640000E-01   8.640000E-01   8.640000E-01   8.640000E-01   8.640000E-01   8.640000E-01   8.640000E-01   8.640000E-01   8.640000E-01   8.640000E-01   8.640000E-01   8.640000E-01   8.640000E-01   8.640000E-01   8.640000E-01   8.640000E-01   8.640000E-01   8.640000E-01   8.640000E-01   8.640000E-01   8.640000E-01   8.640000E-01   8.640000E-01   8.640000E-01   8.640000E-01   8.640000E-01   8.640000E-01   8.640000E-01   8.640000E-01   8.640000E-01   8.640000E-01   8.640000E-01   8.640000E-01   8.640000E-01   8.640000E-01   8.640000E-01   8.640000E-01   8.640000E-01   8.640000E-01   8.640000E-01   8.640000E-01   8.640000E-01   8.640000E-01   8.640000E-01   8.640000E-01   8.640000E-01   8.640000E-01   8.640000E-01   8.640000E-01   8.640000E-01   8.640000E-01   8.640000E-01   8.640000E-01   8.640000E-01   8.640000E-01   8.640000E-01   8.640000E-01   8.640000E-01   8.640000E-01   8.640000E-01   8.640000E-01   8.640000E-01   8.640000E-01   8.640000E-01   8.640000E-01   8.640000E-01   8.640000E-01   8.640000E-01   8.640000E-01   8.640000E-01   8.640000E-01   8.640000E-01   8.640000E-01   8.640000E-01   8.640000E-01   8.640000E-01   8.640000E-01   8.640000E-01   8.640000E-01   8.640000E-01   8.640000E-01   8.640000E-01   8.640000E-01   8.640000E-01   8.640000E-01   8.640000E-01   8.640000E-01   8.640000E-01   8.640000E-01   8.640000E-01   8.640000E-01   8.640000E-01   8.640000E-01   8.640000E-01   8.640000E-01   8.640000E-01   8.640000E-01   8.640000E-01   8.640000E-01   8.640000E-01   8.640000E-01   8.640000E-01   8.640000E-01   8.640000E-01   8.640000E-01   8.640000E-01   8.640000E-01   8.640000E-01   8.640000E-01   8.640000E-01   8.640000E-01   8.640000E-01   8.640000E-01   8.640000E-01   8.640000E-01   8.640000E-01   8.640000E-01   8.640000E-01   8.640000E-01   8.640000E-01   8.640000E-01   8.640000E-01   8.640000E-01   8.640000E-01   8.640000E-01   8.640000E-01   8.640000E-01   8.640000E-01   8.640000E-01   8.640000E-01   8.640000E-01   8.640000E-01   8.640000E-01   8.640000E-01   8.640000E-01   8.640000E-01   8.640000E-01   8.640000E-01   8.640000E-01   8.640000E-01   8.640000E-01   8.640000E-01   8.640000E-01   8.640000E-01   8.640000E-01   8.640000E-01   8.640000E-01   8.640000E-01   8.640000E-01   8.640000E-01   8.640000E-01   8.640000E-01   8.640000E-01   8.640000E-01   8.640000E-01   8.640000E-01   8.640000E-01   8.640000E-01   8.640000E-01   8.640000E-01   8.640000E-01   8.640000E-01   8.640000E-01   8.640000E-01   8.640000E-01   8.640000E-01   8.640000E-01   8.640000E-01   8.640000E-01   8.640000E-01   8.640000E-01   8.640000E-01   8.640000E-01
   8.640000E-01   8.640000E-01   8.640000E-01   8.640000E-01   8.640000E-01   8.640000E-01   8.640000E-01   8.640000E-01   8.640000E-01   8.640000E-01   8.640000E-01   8.640000E-01   8.640000E-01   8.640000E-01   8.640000E-01   8.640000E-01   8.640000E-01   8.640000E-01   8.640000E-01   8.640000E-01   8.640000E-01   8.640000E-01   8.640000E-01   8.640000E-01   8.640000E-01   8.640000E-01   8.640000E-01   8.640000E-01   8.640000E-01   8.640000E-01   8.640000E-01   8.640000E-01   8.640000E-01   8.640000E-01   8.640000E-01   8.640000E-01   8.640000E-01   8.640000E-01   8.640000E-01   8.640000E-01   8.640000E-01   8.640000E-01   8.640000E-01   8.640000E-01   8.640000E-01   8.640000E-01   8.640000E-01   8.640000E-01   8.640000E-01   8.640000E-01   8.640000E-01   8.640000E-01   8.640000E-01   8.640000E-01   8.640000E-01   8.640000E-01   8.640000E-01   8.640000E-01   8.640000E-01   8.640000E-01   8.640000E-01   8.640000E-01   8.640000E-01   8.640000E-01   8.640000E-01   8.640000E-01   8.640000E-01   8.640000E-01   8.640000E-01   8.640000E-01   8.640000E-01   8.640000E-01   8.640000E-01   8.640000E-01   8.640000E-01   8.640000E-01   8.640000E-01   8.640000E-01   8.640000E-01   8.640000E-01   8.640000E-01   8.640000E-01   8.640000E-01   8.640000E-01   8.640000E-01   8.640000E-01   8.640000E-01   8.640000E-01   8.640000E-01   8.640000E-01   8.640000E-01   8.640000E-01   8.640000E-01   8.640000E-01   8.640000E-01   8.640000E-01   8.640000E-01   8.640000E-01   8.640000E-01   8.640000E-01   8.640000E-01   8.640000E-01   8.640000E-01   8.640000E-01   8.640000E-01   8.640000E-01   8.640000E-01   8.640000E-01   8.640000E-01   8.640000E-01   8.640000E-01   8.640000E-01   8.640000E-01   8.640000E-01   8.640000E-01   8.640000E-01   8.640000E-01   8.640000E-01   8.640000E-01   8.640000E-01   8.640000E-01   8.640000E-01   8.640000E-01   8.640000E-01   8.640000E-01   8.640000E-01   8.640000E-01   8.640000E-01   8.640000E-01   8.640000E-01   8.640000E-01   8.640000E-01   8.640000E-01   8.640000E-01   8.640000E-01   8.640000E-01   8.640000E-01   8.640000E-01   8.640000E-01   8.640000E-01   8.640000E-01   8.640000E-01   8.640000E-01   8.640000E-01   8.640000E-01   8.640000E-01   8.640000E-01   8.640000E-01   8.640000E-01   8.640000E-01   8.640000E-01   8.640000E-01   8.640000E-01   8.640000E-01   8.640000E-01   8.640000E-01   8.640000E-01   8.640000E-01   8.640000E-01   8.640000E-01   8.640000E-01   8.640000E-01   8.640000E-01   8.640000E-01   8.640000E-01   8.640000E-01   8.640000E-01   8.640000E-01   8.640000E-01   8.640000E-01   8.640000E-01   8.640000E-01   8.640000E-01   8.640000E-01   8.640000E-01   8.640000E-01   8.640000E-01   8.640000E-01   8.640000E-01   8.640000E-01   8.640000E-01   8.640000E-01   8.640000E-01   8.640000E-01   8.640000E-01   8.640000E-01   8.640000E-01   8.640000E-01   8.640000E-01   8.640000E-01   8.640000E-01   8.640000E-01   8.640000E-01   8.640000E-01   8.640000E-01   8.640000E-01   8.640000E-01   8.640000E-01   8.640000E-01   8.640000E-01   8.640000E-01   8.640000E-01   8.640000E-01   8.640000E-01   8.640000E-01   8.640000E-01   8.640000E-01   8.640000E-01   8.640000E-01   8.640000E-01   8.640000E-01   8.640000E-01   8.640000E-01   8.640000E-01   8.640000E-01   8.640000E-01   8.640000E-01   8.640000E-01   8.640000E-01   8.640000E-01   8.640000E-01   8.640000E-01   8.640000E-01   8.640000E-01   8.640000E-01   8.640000E-01   8.640000E-01   8.640000E-01   8.640000E-01   8.640000E-01   8.640000E-01   8.640000E-01   8.640000E-01   8.640000E-01   8.640000E-01   8.640000E-01   8.640000E-01   8.640000E-01   8.640000E-01   8.640000E-01   8.640000E-01   8.640000E-01   8.640000E-01   8.640000E-01   8.640000E-01   8.640000E-01   8.640000E-01   8.640000E-01   8.640000E-01   8.640000E-01   8.640000E-01   8.640000E-01   8.640000E-01   8.640000E-01   8.640000E-01   8.640000E-01   8.640000E-01   8.640000E-01   8.640000E-01   8.640000E-01   8.640000E-01   8.640000E-01   8.640000E-01   8.640000E-01   8.640000E-01   8.640000E-01   8.640000E-01   8.640000E-01   8.640000E-01   8.640000E-01   8.640000E-01   8.640000E-01   8.640000E-01   8.640000E-01   8.640000E-01   8.640000E-01   8.640000E-01   8.640000E-01   8.640000E-01   8.640000E-01   8.640000E-01   8.640000E-01   8.640000E-01   8.640000E-01   8.640000E-01   8.640000E-01   8.640000E-01   8.640000E-01   8.640000E-01   8.640000E-01   8.640000E-01   8.640000E-01   8.640000E-01   8.640000E-01   8.640000E-01   8.640000E-01   8.640000E-01   8.640000E-01   8.640000E-01   8.640000E-01   8.640000E-01   8.640000E-01   8.640000E-01   8.640000E-01   8.640000E-01   8.640000E-01   8.640000E-01   8.640000E-01   8.640000E-01   8.640000E-01   8.640000E-01   8.640000E-01   8.640000E-01   8.640000E-01   8.640000E-01   8.640000E-01   8.640000E-01   8.640000E-01   8.640000E-01   8.640000E-01   8.640000E-01   8.640000E-01   8.640000E-01   8.640000E-01   8.640000E-01   8.640000E-01   8.640000E-01   8.640000E-01   8.640000E-01   8.640000E-01   8.640000E-01   8.640000E-01   8.640000E-01   8.640000E-01   8.640000E-01   8.640000E-01   8.640000E-01   8.640000E-01   8.640000E-01   8.640000E-01   8.640000E-01   8.640000E-01