# WEL package for  MODFLOW-NWT, generated by Flopy.
     84273         0 
SPECIFY        0.1         50
     84273         0 # stress period 1
         1       180         7    -0.060636222
         1       181         7    -0.058856994
         1       180         8      -0.8426916
         1       181         8       -0.740023
         1       180         9      -0.5747359
         1       181         9      -0.5069372
         1       189         9     -0.12584072
         1       190         9     -0.17195015
         1       191         9     -0.01710406
         1       189        10     -0.31592578
         1       190        10      -0.4268209
         1       191        10    -0.044645704
         1       189        11     -0.31208712
         1       190        11      -0.4268227
         1       191        11    -0.048484012
         1       189        12      -0.3082629
         1       190        12     -0.42682448
         1       191        12     -0.05230797
         1       189        13    -0.037899908
         1       190        13    -0.049571887
         1       191        13   -0.0060474523
         1       194        13     -0.07039137
         1       195        13     -0.39630932
         1       196        13     -0.26608038
         1       194        14    -0.060975537
         1       195        14     -0.35478753
         1       196        14      -0.2369516
         1       170        15     -0.11653639
         1       171        15      -0.8194586
         1       172        15     -0.57961226
         1       170        16     -0.09374664
         1       171        16     -0.68934935
         1       172        16      -0.4845122
         1       139        18     -0.24915366
         1       140        18      -0.5475579
         1       141        18      -0.2105286
         1       145        18      -0.6558465
         1       146        18      -0.6892759
         1       147        18      -0.3548371
         1       148        18     -0.36882666
         1       149        18     -0.38281202
         1       150        18     -0.23409276
         1       180        18      -0.2940659
         1       181        18      -0.3199684
         1       139        19      -1.5746518
         1       140        19      -3.3576806
         1       141        19      -1.2618878
         1       145        19      -3.1380916
         1       146        19      -3.1975567
         1       147        19      -1.5748575
         1       148        19      -1.5748575
         1       149        19      -1.5748575
         1       150        19      -0.9445251
         1       180        19      -0.5636277
         1       181        19     -0.61262906
         1       130        20      -0.7289244
         1       131        20      -1.0953782
         1       132        20     -0.18215191
         1       139        20      -1.5448648
         1       140        20      -3.3576941
         1       141        20      -2.1485467
         1       142        20      -1.4224435
         1       143        20     -0.33424896
         1       145        20      -1.7117143
         1       146        20      -1.7370217
         1       147        20     -0.83806646
         1       148        20     -0.82415044
         1       149        20     -0.81023854
         1       150        20     -0.48456478
         1       180        20     -0.13505654
         1       181        20      -0.1435608
         1       130        21      -2.2673838
         1       131        21      -3.3580956
         1       132        21      -0.5695071
         1       139        21      -1.5151939
         1       140        21       -3.357708
         1       141        21       -3.357708
         1       142        21       -3.357708
         1       143        21      -0.8001621
         1       130        22      -0.9834726
         1       131        22      -1.4457256
         1       132        22     -0.25122795
         1       139        22      -0.5345623
         1       140        22      -1.1792091
         1       141        22      -1.1496475
         1       142        22      -1.1200955
         1       143        22     -0.26899394
         1       146        22     -0.06895244
         1       147        22       -1.118776
         1       148        22      -1.1326184
         1       149        22      -1.1464568
         1       150        22     -0.72630316
         1       169        22      -0.5333841
         1       170        22      -0.5341875
         1       146        23     -0.08593022
         1       147        23      -1.5748832
         1       148        23      -1.5748832
         1       149        23      -1.5748832
         1       150        23      -1.0000056
         1       152        23   -8.969364e-05
         1       153        23    -0.008446218
         1       154        23   -0.0057815677
         1       169        23     -0.50041753
         1       170        23     -0.50032574
         1       145        24      -2.7978144
         1       146        24       -3.029254
         1       147        24     -0.07411723
         1       148        24     -0.36571962
         1       149        24      -1.5748897
         1       150        24      -1.0137714
         1       152        24      -0.8044948
         1       153        24      -1.5748897
         1       154        24     -0.52479714
         1       132        25      -0.1745971
         1       133        25      -0.2469324
         1       134        25    -0.014054733
         1       145        25       -2.434296
         1       146        25      -2.6376128
         1       147        25     -0.30788442
         1       148        25      -0.5009088
         1       149        25      -1.2396247
         1       150        25     -0.80019224
         1       152        25      -0.6022013
         1       153        25       -1.184889
         1       154        25      -0.4007138
         1       204        25      -0.2494527
         1       205        25     -0.29590607
         1       132        26      -2.6409202
         1       133        26      -3.3577762
         1       134        26      -0.1956247
         1       146        26    -0.044735722
         1       147        26      -1.5749024
         1       148        26      -1.2856714
         1       204        26      -0.3591952
         1       205        26     -0.42666304
         1       206        26   -0.0012930566
         1       132        27       -2.611711
         1       133        27      -3.3577898
         1       134        27      -1.2421447
         1       135        27      -1.0249325
         1       139        27     -0.49389064
         1       140        27      -1.2674294
         1       141        27      -0.5781035
         1       143        27      -0.9602975
         1       144        27      -1.3837457
         1       145        27     -0.19328591
         1       146        27    -0.031081196
         1       147        27      -1.5749087
         1       148        27      -1.2993248
         1       204        27    -0.025526153
         1       205        27     -0.02714547
         1       206        27  -0.00018867925
         1       132        28       -2.582614
         1       133        28      -3.3578033
         1       134        28      -3.3578033
         1       135        28       -3.090461
         1       139        28       -1.309897
         1       140        28      -3.3578033
         1       141        28      -1.5266204
         1       143        28      -2.3524745
         1       144        28      -3.3578033
         1       145        28     -0.48403153
         1       146        28    -0.017481498
         1       147        28       -1.574915
         1       148        28      -1.3129234
         1       123        29       -608.3903
         1       124        29      -543.47845
         1       132        29      -2.5535784
         1       133        29      -3.3578167
         1       134        29      -3.3578167
         1       135        29      -3.1194916
         1       139        29     -0.49734256
         1       140        29      -1.2747653
         1       141        29      -1.7111596
         1       142        29      -2.1409092
         1       143        29      -2.9921138
         1       144        29      -3.3578167
         1       145        29      -0.5129821
         1       146        29   -0.0027475858
         1       147        29      -0.5029801
         1       148        29     -0.41168728
         1       123        30      -1276.1766
         1       124        30      -1136.7936
         1       132        30        -2.52466
         1       133        30        -3.35783
         1       134        30        -3.35783
         1       135        30      -3.1484056
         1       141        30      -1.7733594
         1       142        30        -3.35783
         1       143        30        -3.35783
         1       144        30        -3.35783
         1       145        30       -0.541819
         1       174        30     -0.03185457
         1       175        30    -0.103310145
         1       176        30    -0.056434993
         1       123        31        -358.586
         1       124        31      -314.19757
         1       132        31      -2.4958074
         1       133        31      -3.3578436
         1       134        31      -3.3578436
         1       135        31      -3.1772523
         1       141        31      -1.7445756
         1       142        31      -3.3578436
         1       143        31      -3.3578436
         1       144        31      -3.3578436
         1       145        31       -0.570583
         1       147        31       -1.432275
         1       148        31      -1.2607346
         1       174        31     -0.20054036
         1       175        31     -0.63765347
         1       176        31      -0.3380914
         1       132        32      -2.4670591
         1       133        32      -3.3578565
         1       134        32      -3.1927884
         1       135        32      -3.0020123
         1       141        32      -1.5169502
         1       142        32      -2.9440887
         1       143        32      -2.9154825
         1       144        32      -2.8868854
         1       145        32     -0.51040876
         1       147        32      -1.5384085
         1       148        32      -1.3669319
         1       174        32      -0.1181609
         1       175        32     -0.38048974
         1       176        32     -0.20207617
         1       108        33      -1.4049628
         1       109        33       -2.004047
         1       110        33     -0.27709273
         1       132        33      -2.4383984
         1       133        33        -3.35787
         1       134        33     -0.39812925
         1       147        33      -1.5250216
         1       148        33      -1.3803238
         1       102        34     -0.01578208
         1       103        34     -0.08128917
         1       104        34    -0.060129557
         1       108        34      -1.5371212
         1       109        34      -2.1795087
         1       110        34     -0.31430137
         1       132        34      -2.4098165
         1       133        34      -3.3578832
         1       134        34     -0.42670918
         1       143        34     -0.81643486
         1       144        34      -1.2860512
         1       145        34     -0.25807318
         1       147        34      -0.8956617
         1       148        34     -0.88639206
         1       149        34     -0.66985124
         1       150        34      -0.4987851
         1       156        34      -0.5613935
         1       157        34      -0.7763347
         1       158        34     -0.08668856
         1       102        35      -0.5364621
         1       103        35       -2.382963
         1       104        35      -1.4765683
         1       132        35      -2.3813453
         1       133        35      -3.3578963
         1       134        35     -0.45517775
         1       143        35      -2.1517746
         1       144        35      -3.3578963
         1       145        35      -0.6847141
         1       148        35     -0.16796868
         1       149        35      -1.5749587
         1       150        35      -1.1624255
         1       156        35      -1.1462429
         1       157        35      -1.5749587
         1       158        35     -0.18414065
         1       102        36     -0.43717694
         1       103        36      -2.0061152
         1       104        36      -1.2530984
         1       132        36      -1.1193148
         1       133        36      -1.5682304
         1       134        36     -0.21998867
         1       141        36     -0.50733626
         1       142        36      -1.0781641
         1       143        36      -1.2145452
         1       144        36      -1.2567413
         1       145        36     -0.25993735
         1       148        36     -0.05358087
         1       149        36      -0.5231659
         1       150        36      -0.3804582
         1       156        36     -0.30967343
         1       157        36     -0.41726997
         1       158        36     -0.05009192
         1       163        36      -1.2288594
         1       164        36      -3.6435156
         1       165        36        -2.21239
         1       166        36     -0.72869444
         1       167        36     -0.25652173
         1       102        37      -0.2145949
         1       103        37      -1.0311819
         1       104        37     -0.65649754
         1       141        37      -0.8299034
         1       142        37      -1.7707152
         1       143        37      -0.6658476
         1       163        37      -1.4795462
         1       164        37      -4.4266043
         1       165        37      -2.6711912
         1       166        37     -0.85201615
         1       167        37     -0.33797532
         1       168        37     -0.06197547
         1       169        37    -0.013679372
         1       185        37    -0.077359036
         1       186        37      -0.4107357
         1       187        37      -0.2761538
         1       102        38    -0.100231975
         1       103        38     -0.49140146
         1       104        38     -0.31129977
         1       141        38     -0.81505394
         1       142        38      -1.7707223
         1       143        38     -0.68069553
         1       147        38       -3.798285
         1       148        38      -3.8030627
         1       167        38      -0.5704156
         1       168        38     -0.89901626
         1       169        38     -0.18897235
         1       185        38     -0.35275096
         1       186        38      -1.8794585
         1       187        38      -1.2347729
         1       141        39       -0.729993
         1       142        39      -1.6032491
         1       143        39      -0.6249972
         1       147        39      -3.6397378
         1       148        39      -3.6383946
         1       156        39     -0.67349523
         1       157        39      -1.0068477
         1       158        39     -0.15802358
         1       159        39   -0.0019594168
         1       160        39      -1.1211499
         1       161        39     -0.97453487
         1       167        39      -0.3926884
         1       168        39      -0.6198066
         1       169        39     -0.13363087
         1       174        39     -0.07997382
         1       175        39      -0.3312919
         1       176        39      -0.2022732
         1       178        39    -0.118420504
         1       179        39     -0.21660775
         1       180        39     -0.06343282
         1       185        39     -0.18587942
         1       186        39      -1.0161477
         1       187        39     -0.66547346
         1       106        40      -0.4039441
         1       107        40     -0.82677025
         1       108        40      -0.2932844
         1       115        40     -0.14716792
         1       116        40     -0.55023783
         1       117        40      -0.3190835
         1       156        40       -3.148919
         1       157        40       -4.590093
         1       158        40     -0.72828656
         1       159        40  -0.00017069932
         1       160        40       -4.574534
         1       161        40      -3.8925815
         1       174        40     -0.21504751
         1       175        40     -0.89902323
         1       176        40      -0.5443332
         1       178        40      -0.2966004
         1       179        40      -0.5394139
         1       180        40     -0.15902622
         1       243        40      -0.0951375
         1       244        40     -0.08697242
         1       104        41    -0.008061977
         1       105        41    -0.030475052
         1       106        41      -0.5192639
         1       107        41      -1.0311978
         1       108        41     -0.37103987
         1       115        41     -0.16387308
         1       116        41      -0.6272088
         1       117        41     -0.40016848
         1       118        41     -0.08657339
         1       119        41    -0.038992077
         1       156        41      -3.1109357
         1       157        41       -4.590111
         1       158        41      -2.5604994
         1       159        41      -2.1941676
         1       160        41      -2.3656237
         1       161        41      -2.3081646
         1       162        41      -2.3077748
         1       163        41      -1.6450146
         1       174        41    -0.082951605
         1       175        41      -0.3507796
         1       176        41     -0.21074459
         1       178        41     -0.10675419
         1       179        41     -0.19273518
         1       180        41     -0.46481875
         1       181        41      -0.5925682
         1       182        41      -0.0889721
         1       185        41      -0.2682174
         1       186        41      -1.6698606
         1       187        41      -1.1515417
         1       243        41      -0.5754174
         1       244        41      -0.5084057
         1       104        42      -0.3313195
         1       105        42      -1.0312018
         1       106        42      -1.0312018
         1       107        42      -1.0312018
         1       108        42     -0.37965068
         1       115        42     -0.15864776
         1       116        42      -0.6272113
         1       117        42      -0.6272113
         1       118        42      -0.6272113
         1       119        42     -0.27377513
         1       156        42       -3.073112
         1       157        42      -4.5901284
         1       158        42      -4.5901284
         1       159        42      -4.5901284
         1       160        42     -0.09115129
         1       161        42       -0.621793
         1       162        42      -4.5901284
         1       163        42      -3.2553835
         1       180        42      -0.6192231
         1       181        42     -0.89903015
         1       182        42      -0.1401519
         1       185        42      -0.3691807
         1       186        42      -2.3850083
         1       187        42       -1.645329
         1       243        42     -0.34138033
         1       244        42     -0.30207166
         1       104        43      -0.2368503
         1       105        43      -0.7484924
         1       106        43      -0.7399241
         1       107        43     -0.73135847
         1       108        43     -0.46463847
         1       109        43     -0.31697333
         1       110        43    -0.072196454
         1       115        43     -0.09875335
         1       116        43      -0.3979995
         1       117        43     -0.39280114
         1       118        43     -0.38760445
         1       119        43     -0.17011803
         1       156        43      -3.0353718
         1       157        43       -4.590146
         1       158        43      -1.9228326
         1       159        43      -1.2848194
         1       160        43    -0.031772375
         1       161        43     -0.15543948
         1       162        43      -1.1718533
         1       163        43      -0.8140469
         1       180        43     -0.06563908
         1       181        43    -0.089750595
         1       182        43      -0.6965483
         1       183        43      -0.8239597
         1       184        43    -0.007479583
         1       185        43    -0.022863798
         1       186        43     -0.14079323
         1       187        43    -0.086296506
         1       108        44     -0.63441974
         1       109        44      -1.0312097
         1       110        44     -0.23666228
         1       156        44       -2.997784
         1       157        44      -4.5901637
         1       158        44      -0.8794099
         1       182        44      -0.7442236
         1       183        44       -0.899037
         1       184        44     -0.40223244
         1       185        44     -0.35711968
         1       106        45     -0.24546367
         1       107        45      -0.5519994
         1       108        45      -0.5060828
         1       109        45     -0.46218532
         1       110        45     -0.10759154
         1       130        45     -0.60415363
         1       131        45      -1.2978867
         1       132        45      -0.4908204
         1       152        45      -1.3911713
         1       153        45       -4.191648
         1       154        45      -2.1552625
         1       156        45      -2.9602997
         1       157        45      -4.5901814
         1       158        45      -0.9168898
         1       182        45      -0.7369349
         1       183        45     -0.89904046
         1       184        45       -2.347951
         1       185        45      -2.0740294
         1       106        46     -0.45726213
         1       107        46      -1.0312176
         1       108        46     -0.41382027
         1       130        46     -0.81861085
         1       131        46      -1.7707765
         1       132        46      -0.6771471
         1       143        46     -0.07349253
         1       144        46     -0.14581527
         1       145        46    -0.046383474
         1       152        46      -1.2745327
         1       153        46      -3.8762262
         1       154        46      -2.3565772
         1       155        46     -0.78854114
         1       156        46      -3.2213237
         1       157        46       -4.590198
         1       158        46      -0.9542488
         1       182        46     -0.72966444
         1       183        46     -0.89904386
         1       184        46      -1.4004781
         1       185        46       -1.224203
         1       255        46    -0.015583957
         1       256        46     -0.57719314
         1       257        46     -0.47526157
         1        97        47      -0.4739652
         1        98        47      -0.7278737
         1        99        47     -0.13715482
         1       106        47     -0.10220373
         1       107        47     -0.22705889
         1       108        47     -0.08983162
         1       123        47     -0.47603023
         1       124        47     -0.57650405
         1       125        47   -0.0070209946
         1       130        47    -0.024015795
         1       131        47     -0.04188674
         1       132        47    -0.012316458
         1       143        47      -0.9586166
         1       144        47      -1.7707832
         1       145        47     -0.53711855
         1       154        47       -2.172691
         1       155        47      -4.5902157
         1       156        47      -4.5902157
         1       157        47      -4.5902157
         1       158        47      -0.9914674
         1       182        47      -0.7224247
         1       183        47     -0.89904726
         1       184        47    -0.036945645
         1       255        47    -0.009280382
         1       256        47      -0.4583366
         1       257        47     -0.37435624
         1        97        48     -0.67087007
         1        98        48      -1.0312253
         1        99        48     -0.20021982
         1       108        48    -0.020415759
         1       109        48    -0.041941974
         1       110        48    -0.012588105
         1       123        48     -0.51728797
         1       124        48      -0.6272256
         1       125        48    -0.117331155
         1       126        48      -0.0972297
         1       143        48      -0.6446471
         1       144        48      -1.1950368
         1       145        48     -0.36766088
         1       149        48      -1.6725713
         1       150        48      -1.4520726
         1       152        48       -0.554091
         1       153        48      -1.8265264
         1       154        48      -3.1319902
         1       155        48       -4.590233
         1       156        48      -3.3878846
         1       157        48       -2.615459
         1       158        48      -2.1361094
         1       159        48      -2.0488465
         1       160        48      -2.0858703
         1       161        48      -1.9421756
         1       182        48     -0.71520096
         1       183        48     -0.89905065
         1       184        48      -1.5107133
         1       185        48      -1.3984355
         1        97        49     -0.03727878
         1        98        49    -0.050743565
         1        99        49    -0.009066186
         1       108        49     -0.59207016
         1       109        49      -1.0312291
         1       110        49     -0.27900812
         1       123        49      -0.5121917
         1       124        49     -0.62722796
         1       125        49     -0.62722796
         1       126        49      -0.5474278
         1       149        49      -4.5496483
         1       150        49      -3.9178107
         1       152        49      -1.3854892
         1       153        49      -4.5902505
         1       154        49      -4.5902505
         1       155        49      -4.5902505
         1       156        49      -1.7786385
         1       158        49      -3.5246847
         1       159        49      -4.5902505
         1       160        49      -4.5902505
         1       161        49      -4.2296467
         1       182        49      -0.7080077
         1       183        49       -0.899054
         1       184        49      -2.3001778
         1       185        49      -2.1507573
         1        77        50    -0.018115522
         1        78        50     -0.02362247
         1       108        50      -0.4218099
         1       109        50       -0.737211
         1       110        50     -0.20309936
         1       123        50     -0.30522943
         1       124        50     -0.37219405
         1       125        50      -0.6172905
         1       126        50     -0.55251044
         1       137        50     -0.04483797
         1       138        50     -0.92014205
         1       139        50     -0.74214345
         1       143        50      -0.5126905
         1       144        50      -1.0057095
         1       145        50     -0.33428898
         1       149        50      -1.7723731
         1       150        50      -1.5157211
         1       152        50     -0.49636307
         1       153        50      -1.6511385
         1       154        50       -2.951253
         1       155        50      -4.5902677
         1       156        50      -1.8155454
         1       158        50      -3.4878156
         1       159        50      -4.5902677
         1       160        50      -4.5902677
         1       161        50       -4.266509
         1       165        50      -0.2526066
         1       166        50      -0.6693867
         1       167        50       -0.313305
         1       182        50     -0.08920497
         1       183        50    -0.107537046
         1       184        50      -2.2361827
         1       185        50      -2.1697865
         1       187        50      -0.5355002
         1       188        50      -2.1948488
         1       189        50      -1.3243914
         1        77        51      -0.7256004
         1        78        51      -0.7326288
         1       125        51      -0.5994698
         1       126        51     -0.55757123
         1       137        51    -0.076216504
         1       138        51      -1.7708098
         1       139        51      -1.4195231
         1       143        51      -0.9014358
         1       144        51      -1.7708098
         1       145        51     -0.59429485
         1       154        51      -2.0248816
         1       155        51      -4.5902843
         1       156        51      -1.8522977
         1       158        51      -3.4510999
         1       159        51      -4.5902843
         1       160        51       -4.590285
         1       161        51        -4.30322
         1       165        51     -0.33557856
         1       166        51      -0.8990607
         1       167        51      -0.4238031
         1       184        51      -1.9253619