# WEL package for  MODFLOW-NWT, generated by Flopy.
      9509         0 
SPECIFY        0.1         50
      9509         0 # stress period 1
         1        43        11       -5.195455
         1        44        11       -5.195455
         1        45        11      -12.471534
         1        46        11      -12.471534
         1        44        12       -5.195455
         1        45        12      -12.471534
         1        46        12      -12.471534
         1        44        13      -60.083176
         1        45        13      -40.549065
         1        46        13      -40.549065
         1        44        14      -60.083176
         1        45        14      -40.549065
         1        46        14      -40.549065
         1        44        15      -195.29301
         1        51        15      -25.014349
         1        52        15      -25.014349
         1        49        18      -34.388344
         1        50        18      -34.388344
         1        49        19      -34.388344
         1        50        19      -34.388344
         1        44        22      -201.23492
         1        45        23      -0.8708093
         1        46        23      -0.8708093
         1        47        23      -6.0650373
         1        48        23      -6.0650373
         1        29        24       -659.6711
         1        30        24       -659.6711
         1        45        24      -0.8708093
         1        46        24      -0.8708093
         1        47        24      -6.0650373
         1        48        24      -6.0650373
         1        45        25      -0.5064391
         1        46        25      -0.5064391
         1        47        25       -4.204655
         1        48        25       -4.204655
         1        45        26      -0.5064391
         1        46        26      -0.5064391
         1        47        26       -4.204655
         1        48        26       -4.204655
         1        34        29      -15.221552
         1        35        29      -15.221552
         1        34        30      -15.221552
         1        35        30      -15.221552
         1        25        34      -4.4324703
         1        26        34      -4.4324703
         1        27        34      -12.628492
         1        28        34      -12.628492
         1        25        35      -4.4324703
         1        26        35      -4.4324703
         1        27        35      -12.628492
         1        28        35      -12.628492
         1        25        36      -2.2277744
         1        26        36      -2.2277744
         1        27        36      -2.9532492
         1        28        36      -2.9532492
         1        25        37      -2.2277744
         1        26        37      -2.2277744
         1        27        37      -2.9532492
         1        28        37      -2.9532492
         1        73        41      -18.582893
         1        74        41      -18.582893
         1        73        42      -18.582893
         1        74        42      -18.582893
         1        35        43      -31.405022
         1        35        44      -31.405022
         1        31        45       -26.30934
         1        32        45       -26.30934
         1        33        45      -55.706554
         1        34        45      -55.706554
         1        31        46      -12.092915
         1        32        46      -12.092915
         1        33        46      -27.145935
         1        34        46      -27.145935
         1        31        47      -12.092915
         1        32        47      -12.092915
         1        33        47      -27.145935
         1        34        47      -27.145935
         1        20        48       -1.070062
         1        21        48       -1.070062
         1        27        48      -115.61178
         1        28        48      -115.61178
         1        20        49       -1.070062
         1        21        49       -1.070062
         1        27        49      -115.61178
         1        28        49      -115.61178
         1        18        50      -0.3683224
         1        19        50      -0.3683224
         1        20        50       -8.878141
         1        21        50       -8.878141
         1        27        50      -233.56335
         1        28        50      -233.56335
         1        53        50      -1.7466196
         1        54        50      -1.7466196
         1        60        50      -7.4293523
         1        61        50      -7.4293523
         1        18        51      -0.3683224
         1        19        51      -0.3683224
         1        20        51       -8.878141
         1        21        51       -8.878141
         1        27        51      -233.56335
         1        28        51      -233.56335
         1        53        51      -1.7466196
         1        54        51      -1.7466196
         1        60        51      -7.4293523
         1        61        51      -7.4293523
         1        86        51      -1.3715998
         1        87        51      -1.3715998
         1        18        52      -2.0214438
         1        19        52      -2.0214438
         1        25        52         -5.5028
         1        26        52         -5.5028
         1        27        52       -46.25425
         1        28        52       -46.25425
         1        29        52      -20.370838
         1        30        52      -20.370838
         1        33        52       -81.84101
         1        34        52       -81.84101
         1        35        52       -99.99281
         1        53        52      -89.850975
         1        54        52      -89.850975
         1        59        52      -13.689588
         1        70        52       -62.76825
         1        86        52      -1.3715998
         1        87        52      -1.3715998
         1        18        53      -2.0214438
         1        19        53      -2.0214438
         1        25        53         -5.5028
         1        26        53         -5.5028
         1        27        53       -46.25425
         1        28        53       -46.25425
         1        29        53      -20.370838
         1        30        53      -20.370838
         1        33        53       -81.84101
         1        34        53       -81.84101
         1        35        53       -99.99281
         1        51        53      -1.3717244
         1        52        53      -1.3717244
         1        53        53      -5.8256383
         1        54        53      -5.8256383
         1        70        53      -28.052567
         1        86        53      -4.0392876
         1        87        53      -4.0392876
         1        25        54      -23.353846
         1        26        54      -23.353846
         1        33        54      -44.781536
         1        34        54      -44.781536
         1        35        54      -151.81792
         1        51        54      -1.3717244
         1        52        54      -1.3717244
         1        53        54      -5.8256383
         1        54        54      -5.8256383
         1        70        54      -28.052567
         1        86        54      -4.0392876
         1        87        54      -4.0392876
         1        14        55       -5.553171
         1        15        55       -5.553171
         1        16        55      -2.8489044
         1        17        55      -2.8489044
         1        20        55       -17.26338
         1        21        55       -17.26338
         1        29        55      -20.920055
         1        30        55      -20.920055
         1        60        55      -3.8334057
         1        61        55      -3.8334057
         1        62        55      -14.858093
         1        63        55      -14.858093
         1        64        55      -0.6059683
         1        65        55      -0.6059683
         1        66        55     -0.58748525
         1        67        55     -0.58748525
         1        70        55      -31.556316
         1        71        55      -0.8779056
         1        72        55      -0.8779056
         1        79        55      -24.564558
         1        80        55      -24.564558
         1        84        55      -19.848436
         1        85        55      -19.848436
         1        86        55     -0.16958162
         1        87        55     -0.16958162
         1        14        56       -5.553171
         1        15        56       -5.553171
         1        16        56      -2.8489044
         1        17        56      -2.8489044
         1        20        56       -17.26338
         1        21        56       -17.26338
         1        29        56      -20.920055
         1        30        56      -20.920055
         1        60        56      -3.8334057
         1        61        56      -3.8334057
         1        62        56      -14.858093
         1        63        56      -14.858093
         1        64        56      -0.6059683
         1        65        56      -0.6059683
         1        66        56     -0.58748525
         1        67        56     -0.58748525
         1        70        56      -31.556316
         1        71        56      -0.8779056
         1        72        56      -0.8779056
         1        79        56      -24.564558
         1        80        56      -24.564558
         1        84        56      -19.848436
         1        85        56      -19.848436
         1        86        56     -0.16958162
         1        87        56     -0.16958162
         1        16        57       -8.418344
         1        17        57       -8.418344
         1        20        57     -0.19064353
         1        21        57     -0.19064353
         1        29        57      -6.4438915
         1        30        57      -6.4438915
         1        38        57       -9.900937
         1        39        57       -9.900937
         1        40        57      -6.8201013
         1        41        57      -6.8201013
         1        59        57       -84.62744
         1        60        57      -16.399351
         1        61        57      -16.399351
         1        62        57       -9.167453
         1        63        57       -9.167453
         1        66        57      -23.802704
         1        67        57      -23.802704
         1        68        57      -1.7560599
         1        69        57      -1.7560599
         1        70        57         -5.0799
         1        77        57      -33.163445
         1        78        57      -33.163445
         1        83        57        -18.8583
         1        84        57      -7.7854877
         1        85        57      -7.7854877
         1        16        58       -8.418344
         1        17        58       -8.418344
         1        20        58     -0.19064353
         1        21        58     -0.19064353
         1        29        58      -6.4438915
         1        30        58      -6.4438915
         1        38        58       -9.900937
         1        39        58       -9.900937
         1        40        58      -6.8201013
         1        41        58      -6.8201013
         1        59        58       -84.62744
         1        60        58      -16.399351
         1        61        58      -16.399351
         1        62        58       -9.167453
         1        63        58       -9.167453
         1        66        58      -23.802704
         1        67        58      -23.802704
         1        68        58      -1.7560599
         1        69        58      -1.7560599
         1        70        58         -5.0799
         1        77        58      -33.163445
         1        78        58      -33.163445
         1        83        58       -9.117652
         1        84        58      -3.6667156
         1        85        58      -3.6667156
         1        16        59      -10.996058
         1        17        59      -10.996058
         1        20        59     -0.64602596
         1        21        59     -0.64602596
         1        27        59      -22.545353
         1        28        59      -22.545353
         1        31        59      -17.682642
         1        32        59      -17.682642
         1        59        59      -6.1111465
         1        62        59      -22.299118
         1        63        59      -22.299118
         1        64        59     -0.17538494
         1        65        59     -0.17538494
         1        66        59     -0.17744492
         1        67        59     -0.17744492
         1        70        59      -4.7674828
         1        71        59      -4.7674828
         1        77        59      -62.102615
         1        78        59      -62.102615
         1        79        59      -38.023804
         1        80        59      -38.023804
         1        83        59       -9.117652
         1        84        59      -3.6667156
         1        85        59      -3.6667156
         1        16        60      -10.996058
         1        17        60      -10.996058
         1        20        60     -0.64602596
         1        21        60     -0.64602596
         1        27        60      -22.545353
         1        28        60      -22.545353
         1        31        60      -17.682642
         1        32        60      -17.682642
         1        53        60      -5.4254403
         1        54        60      -5.4254403
         1        55        60      -4.7609687
         1        56        60      -4.7609687
         1        59        60      -3.1271596
         1        62        60      -12.679801
         1        63        60      -12.679801
         1        64        60     -0.08621968
         1        65        60     -0.08621968
         1        70        60      -2.3994424
         1        71        60      -2.3994424
         1        11        61      -3.5541532
         1        14        61      -11.058997
         1        15        61      -11.058997
         1        16        61       -68.46679
         1        17        61       -68.46679
         1        20        61       -23.81317
         1        21        61       -23.81317
         1        22        61      -14.209031
         1        23        61      -14.209031
         1        53        61      -5.4254403
         1        54        61      -5.4254403
         1        55        61      -4.7609687
         1        56        61      -4.7609687
         1        59        61      -3.1271596
         1        62        61      -12.679801
         1        63        61      -12.679801
         1        64        61     -0.08621968
         1        65        61     -0.08621968
         1        70        61      -2.3994424
         1        71        61      -2.3994424
         1        14        62      -4.9242964
         1        15        62      -4.9242964
         1        16        62      -30.262318
         1        17        62      -30.262318
         1        18        62      -12.579147
         1        19        62      -12.579147
         1        22        62       -7.642009
         1        23        62       -7.642009
         1        38        62       -5.825122
         1        39        62       -5.825122
         1        55        62       -72.22562
         1        56        62       -72.22562
         1        57        62      -4.3965554
         1        58        62      -4.3965554
         1        60        62       -19.43461
         1        61        62       -19.43461
         1        62        62       -26.69142
         1        63        62       -26.69142
         1        75        62      -3.2935772
         1        76        62      -3.2935772
         1        14        63      -4.9242964
         1        15        63      -4.9242964
         1        16        63      -30.262318
         1        17        63      -30.262318
         1        18        63      -12.579147
         1        19        63      -12.579147
         1        22        63       -7.642009
         1        23        63       -7.642009
         1        38        63       -5.825122
         1        39        63       -5.825122
         1        55        63       -72.22562
         1        56        63       -72.22562
         1        57        63      -4.3965554
         1        58        63      -4.3965554
         1        60        63       -19.43461
         1        61        63       -19.43461
         1        62        63       -26.69142
         1        63        63       -26.69142
         1        75        63      -3.2935772
         1        76        63      -3.2935772
         1        14        64      -1.9340904
         1        15        64      -1.9340904
         1        16        64      -26.183163
         1        17        64      -26.183163
         1        18        64      -13.683166
         1        19        64      -13.683166
         1        20        64      -12.931826
         1        21        64      -12.931826
         1        22        64    -0.021218799
         1        23        64    -0.021218799
         1        24        64      -13.259318
         1        35        64      -14.941789
         1        36        64       -78.36224
         1        37        64       -78.36224
         1        38        64      -86.796425
         1        39        64      -86.796425
         1        51        64      -2.8904161
         1        52        64      -2.8904161
         1        57        64       -17.22691
         1        58        64       -17.22691
         1        59        64      -14.422304
         1        60        64     -0.82635814
         1        61        64     -0.82635814
         1        62        64      -111.19704
         1        63        64      -111.19704
         1        64        64       -5.194897
         1        65        64       -5.194897
         1        75        64       -41.84683
         1        76        64       -41.84683
         1        79        64      -0.5596364
         1        80        64      -0.5596364
         1        14        65      -1.9340904
         1        15        65      -1.9340904
         1        16        65      -26.183163
         1        17        65      -26.183163
         1        18        65      -13.683166
         1        19        65      -13.683166
         1        20        65      -12.931826
         1        21        65      -12.931826
         1        22        65    -0.021218799
         1        23        65    -0.021218799
         1        24        65      -13.259318
         1        35        65      -14.941789
         1        36        65      -14.941789
         1        37        65       -78.36224
         1        38        65      -86.796425
         1        39        65      -86.796425
         1        51        65      -2.8904161
         1        52        65      -2.8904161
         1        57        65       -17.22691
         1        58        65       -17.22691
         1        59        65      -14.422304
         1        60        65     -0.82635814
         1        61        65     -0.82635814
         1        62        65      -111.19704
         1        63        65      -111.19704
         1        64        65       -5.194897
         1        65        65       -5.194897
         1        75        65       -41.84683
         1        76        65       -41.84683
         1        79        65      -0.5596364
         1        80        65      -0.5596364
         1        14        66       -4.406774
         1        15        66       -4.406774
         1        16        66      -3.2678516
         1        17        66      -3.2678516
         1        18        66      -389.34256
         1        19        66      -389.34256
         1        20        66      -401.15314
         1        21        66      -401.15314
         1        24        66      -24.173094
         1        25        66      -12.539041
         1        26        66      -12.539041
         1        40        66      -3.5991125
         1        41        66      -3.5991125
         1        51        66      -3.6017349
         1        52        66      -3.6017349
         1        57        66       -5.341613
         1        58        66       -5.341613
         1        59        66      -541.24554
         1        60        66      -811.42523
         1        61        66      -811.42523
         1        62        66      -1792.3169
         1        63        66      -1792.3169
         1        64        66       -34.96117
         1        65        66       -34.96117
         1        79        66      -20.964457
         1        80        66      -20.964457
         1        14        67       -4.406774
         1        15        67       -4.406774
         1        16        67      -3.2678516
         1        17        67      -3.2678516
         1        18        67      -389.34256
         1        19        67      -389.34256
         1        20        67      -401.15314
         1        21        67      -401.15314
         1        24        67      -24.173094
         1        25        67      -12.539041
         1        26        67      -12.539041
         1        40        67      -3.5991125
         1        41        67      -3.5991125
         1        51        67      -3.6017349
         1        52        67      -3.6017349
         1        59        67      -262.23938
         1        60        67      -715.61444
         1        61        67      -715.61444
         1        62        67      -1133.0406
         1        63        67      -1133.0406
         1        64        67      -113.62054
         1        65        67      -113.62054
         1        66        67      -58.695038
         1        67        67      -58.695038
         1        68        67      -56.060513
         1        69        67      -56.060513
         1        70        67      -41.973015
         1        71        67      -41.973015
         1        73        67        -2.29739
         1        74        67        -2.29739
         1        79        67      -51.487328
         1        80        67      -51.487328
         1        81        67      -13.229395
         1        82        67      -13.229395
         1        83        67      -64.343315
         1        84        67      -17.580532
         1        85        67      -17.580532
         1        11        68      -26.350437
         1        12        68      -26.350437
         1        13        68      -0.5063775
         1        14        68       -8.749748
         1        15        68       -8.749748
         1        16        68      -12.693042
         1        17        68      -12.693042
         1        18        68      -644.77026
         1        19        68      -644.77026
         1        20        68       -644.7842
         1        21        68       -644.7842
         1        22        68      -528.51587
         1        23        68      -528.51587
         1        25        68      -220.46143
         1        26        68      -220.46143
         1        40        68      -7.7733006
         1        41        68      -7.7733006
         1        51        68      -63.922855
         1        52        68      -63.922855
         1        59        68      -262.23938
         1        60        68      -715.61444
         1        61        68      -715.61444
         1        62        68      -1133.0406
         1        63        68      -1133.0406
         1        64        68      -113.62054
         1        65        68      -113.62054
         1        66        68      -58.695038
         1        67        68      -58.695038
         1        68        68      -56.060513
         1        69        68      -56.060513
         1        70        68      -41.973015
         1        71        68      -41.973015
         1        73        68        -2.29739
         1        74        68        -2.29739
         1        79        68      -51.487328
         1        80        68      -51.487328
         1        81        68      -13.229395
         1        82        68      -13.229395
         1        83        68      -64.343315
         1        84        68      -17.580532
         1        85        68      -17.580532
         1        11        69      -26.350437
         1        12        69      -26.350437
         1        13        69      -0.5063775
         1        14        69       -8.749748
         1        15        69       -8.749748
         1        18        69      -11.019244
         1        19        69      -11.019244
         1        20        69      -151.26079
         1        21        69      -151.26079
         1        22        69      -367.29938
         1        23        69      -367.29938
         1        24        69      -404.29462
         1        27        69       -7.653799
         1        28        69       -7.653799
         1        29        69      -49.433327
         1        30        69      -49.433327
         1        33        69      -24.382322
         1        34        69      -24.382322
         1        40        69     -0.67860556
         1        41        69     -0.67860556
         1        42        69      -12.900506
         1        43        69      -12.900506
         1        44        69      -12.279218
         1        45        69      -12.279218
         1        51        69       -5.068357
         1        52        69       -5.068357
         1        53        69      -52.048916
         1        54        69      -52.048916
         1        57        69      -6.1668067
         1        58        69      -6.1668067
         1        59        69      -37.272923
         1        60        69      -37.272923
         1        64        69       -66.97159
         1        65        69       -66.97159
         1        72        69     -0.12615812
         1        73        69      -11.143322
         1        74        69      -11.143322
         1        75        69      -31.211996
         1        76        69      -31.211996
         1        79        69      -12.437123
         1        80        69      -12.437123
         1        81        69       -38.49627
         1        82        69       -38.49627
         1        83        69       -7.217973
         1         9        70      -308.77716
         1        10        70      -308.77716
         1        11        70      -270.67798
         1        12        70      -270.67798
         1        13        70       -724.9894
         1        14        70      -120.37184
         1        15        70      -120.37184
         1        18        70      -11.019244
         1        19        70      -11.019244
         1        20        70      -151.26079
         1        21        70      -151.26079
         1        22        70      -367.29938
         1        23        70      -367.29938
         1        24        70      -404.29462
         1        27        70       -7.653799
         1        28        70       -7.653799
         1        29        70      -49.433327
         1        30        70      -49.433327
         1        33        70      -24.382322
         1        34        70      -24.382322
         1        40        70     -0.67860556
         1        41        70     -0.67860556
         1        42        70      -12.900506
         1        43        70      -12.900506
         1        44        70      -12.279218
         1        45        70      -12.279218
         1        51        70       -5.068357
         1        52        70       -5.068357
         1        53        70      -52.048916
         1        54        70      -52.048916
         1        57        70      -6.1668067
         1        58        70      -6.1668067
         1        59        70      -37.272923
         1        60        70      -37.272923
         1        64        70       -66.97159
         1        65        70       -66.97159
         1        72        70     -0.12615812
         1        73        70      -11.143322
         1        74        70      -11.143322
         1        75        70      -31.211996
         1        76        70      -31.211996
         1        79        70      -12.437123
         1        80        70      -12.437123
         1        81        70       -38.49627
         1        82        70       -38.49627
         1        83        70       -7.217973
         1         9        71      -0.8831788
         1        10        71      -0.8831788
         1        11        71       -12.40801
         1        12        71       -12.40801
         1        16        71       -62.38811
         1        17        71       -62.38811
         1        18        71        -80.0952
         1        19        71        -80.0952
         1        20        71       -68.24641
         1        21        71       -68.24641
         1        25        71      -183.09561
         1        26        71      -183.09561
         1        35        71       -135.2531
         1        36        71       -135.2531
         1        40        71      -5.9929748
         1        41        71      -5.9929748
         1        44        71       -46.25264
         1        45        71       -46.25264
         1        53        71      -10.732372
         1        54        71      -10.732372
         1        57        71      -3.0163164
         1        58        71      -3.0163164