# DIS package for  MODFLOW-NWT, generated by Flopy.
         1       158       342         1         4         2
  0
CONSTANT    5.000000E+02                           #delr                          
CONSTANT    5.000000E+02                           #delc                          
INTERNAL               1 (342E15.6) -1 #model_top                     
   1.033569E+03   9.576643E+02   8.800889E+02   8.185214E+02   8.399024E+02   8.285889E+02   8.936881E+02   8.826405E+02   9.584976E+02   9.835690E+02   9.749976E+02   9.991405E+02   9.867556E+02   8.712357E+02   8.817051E+02   9.787357E+02   9.943990E+02   9.942153E+02   9.829262E+02   9.577255E+02   8.625623E+02   7.457357E+02   6.617051E+02   6.363071E+02   6.226166E+02   6.137119E+02   6.016643E+02   6.008945E+02   6.113071E+02   6.166166E+02   6.531445E+02   6.978547E+02   8.188547E+02   9.541881E+02   9.156405E+02   7.954976E+02   8.001166E+02   7.909500E+02   7.468480E+02   6.927459E+02   6.268547E+02   6.149704E+02   6.442561E+02   6.743786E+02   6.117051E+02   5.816847E+02   5.733786E+02   5.803378E+02   5.933786E+02   5.960889E+02   5.915214E+02   6.018309E+02   6.173666E+02   6.810214E+02   6.848071E+02   6.432000E+02   6.389024E+02   6.357833E+02   6.681166E+02   6.750214E+02   6.916405E+02   7.111166E+02   6.934778E+02   7.140690E+02   7.400928E+02   6.872000E+02   6.941745E+02   7.302766E+02   7.722833E+02   7.388683E+02   7.032766E+02   7.201881E+02   7.535623E+02   7.233990E+02   7.201643E+02   7.443786E+02   7.108888E+02   7.303389E+02   7.389738E+02   7.232833E+02   7.264222E+02   7.231881E+02   6.878071E+02   7.128309E+02   6.765690E+02   6.759738E+02   6.577833E+02   6.711445E+02   6.665214E+02   6.608547E+02   6.927278E+02   7.232595E+02   7.056643E+02   7.325889E+02   7.288547E+02   6.629262E+02   6.397278E+02   6.397255E+02   6.427867E+02   6.597119E+02   6.807255E+02   7.592561E+02   8.959738E+02   9.047663E+02   8.948276E+02   9.038276E+02   8.687459E+02   8.571133E+02   8.094806E+02   7.224500E+02   6.669500E+02   6.535214E+02   6.633389E+02   6.574262E+02   6.596643E+02   6.698389E+02   6.940214E+02   6.943309E+02   7.420611E+02   7.246166E+02   6.899500E+02   6.595333E+02   6.566166E+02   6.533786E+02   6.537556E+02   6.455928E+02   6.513309E+02   6.567556E+02   6.509262E+02   6.525928E+02   6.621643E+02   6.758547E+02   7.195418E+02   7.780521E+02   8.142119E+02   7.850112E+02   7.545214E+02   7.555690E+02   7.415623E+02   7.001949E+02   7.072119E+02   7.250928E+02   7.423173E+02   7.396881E+02   7.411133E+02   7.430521E+02   7.507357E+02   7.608683E+02   7.445418E+02   7.388666E+02   7.446643E+02   7.480690E+02   7.397833E+02   7.337595E+02   7.363309E+02   7.337357E+02   7.595611E+02   7.360928E+02   7.195214E+02   7.117556E+02   7.010214E+02   6.931881E+02   7.040889E+02   7.057357E+02   6.877595E+02   6.480333E+02   6.529976E+02   6.469024E+02   6.546722E+02   6.588309E+02   6.535452E+02   6.293389E+02   6.088786E+02   6.118786E+02   6.348111E+02   6.234976E+02   6.167357E+02   5.973990E+02   5.883786E+02   5.791541E+02   5.702969E+02   5.636643E+02   5.614602E+02   5.604398E+02   5.587119E+02   5.556031E+02   5.556031E+02   5.555690E+02   5.545010E+02   5.579704E+02   5.561881E+02   5.576439E+02   5.521133E+02   5.502833E+02   5.563990E+02   5.607255E+02   5.614738E+02   5.550928E+02   5.559500E+02   5.573378E+02   5.679092E+02   5.774024E+02   5.728786E+02   6.014222E+02   6.333786E+02   6.205214E+02   5.848945E+02   5.646643E+02   5.619500E+02   5.596166E+02   5.522119E+02   5.509024E+02   5.542833E+02   5.457119E+02   5.398309E+02   5.420611E+02   5.458309E+02   5.457833E+02   5.374778E+02   5.499024E+02   5.645928E+02   5.409738E+02   5.323786E+02   5.298071E+02   5.236643E+02   5.191445E+02   5.183309E+02   5.236166E+02   5.293666E+02   5.316643E+02   5.273309E+02   5.238389E+02   5.238547E+02   5.213786E+02   5.203945E+02   5.147357E+02   5.125214E+02   5.131166E+02   5.118310E+02   5.120928E+02   5.172278E+02   5.215452E+02   5.276166E+02   5.265333E+02   5.186881E+02   5.105691E+02   5.075214E+02   5.061444E+02   5.045623E+02   5.030929E+02   5.033071E+02   4.996439E+02   5.030316E+02   5.020214E+02   5.073582E+02   5.146235E+02   5.221166E+02   5.268071E+02   5.289500E+02   5.209976E+02   5.182357E+02   5.118480E+02   5.051405E+02   5.018888E+02   5.004602E+02   5.013786E+02   5.056847E+02   5.185010E+02   5.177051E+02   5.139262E+02   5.167663E+02   5.255214E+02   5.303547E+02   5.338888E+02   5.357255E+02   5.338309E+02   5.339296E+02   5.296643E+02   5.303547E+02   5.294806E+02   5.258071E+02   5.216166E+02   5.181133E+02   5.154194E+02   5.152357E+02   5.173786E+02   5.206643E+02   5.251881E+02   5.284398E+02   5.305010E+02   5.329500E+02   5.385690E+02   5.421745E+02   5.415010E+02   5.454976E+02   5.474806E+02   5.504398E+02   5.540690E+02   5.526439E+02   5.557663E+02   5.594738E+02   5.617459E+02   5.633990E+02   5.668547E+02   5.627663E+02   5.587459E+02   5.579024E+02   5.623786E+02   5.711541E+02   5.784976E+02   5.867663E+02   6.105214E+02   6.123990E+02   6.288547E+02   6.208683E+02   6.016439E+02   5.994976E+02   5.959092E+02   6.087459E+02   6.088071E+02   6.217663E+02   6.104398E+02   5.967833E+02   5.948683E+02   5.946439E+02   5.919262E+02   5.933786E+02   6.009908E+02   6.034500E+02   6.012561E+02   5.907867E+02   5.802357E+02   5.735214E+02   5.701541E+02   5.704602E+02   5.761405E+02   5.827051E+02   5.772153E+02   5.779024E+02   5.751745E+02   5.655214E+02   5.602119E+02
   1.001460E+03   9.685010E+02   9.807663E+02   9.519908E+02   9.677867E+02   9.895826E+02   1.015685E+03   1.000562E+03   9.831541E+02   9.725056E+02   9.528309E+02   9.730214E+02   9.044222E+02   7.742833E+02   7.460452E+02   9.077833E+02   8.926643E+02   9.603786E+02   9.635611E+02   9.464500E+02   8.184738E+02   7.138666E+02   6.758547E+02   6.886166E+02   6.801881E+02   6.829500E+02   6.345418E+02   6.086881E+02   5.964194E+02   6.015418E+02   6.268888E+02   6.901541E+02   7.661337E+02   8.973990E+02   8.883111E+02   7.512119E+02   7.549262E+02   7.362000E+02   6.975928E+02   6.453786E+02   6.207278E+02   6.025452E+02   6.023786E+02   6.425056E+02   6.085452E+02   5.773071E+02   5.742278E+02   5.976643E+02   5.962119E+02   6.133111E+02   6.111133E+02   6.282561E+02   6.484738E+02   7.131541E+02   7.048480E+02   6.980928E+02   6.844398E+02   6.489296E+02   6.705010E+02   7.246166E+02   7.439296E+02   7.669262E+02   7.387000E+02   7.557595E+02   7.342833E+02   7.076445E+02   7.266166E+02   7.365690E+02   7.875056E+02   7.294976E+02   7.339024E+02   7.277556E+02   8.033071E+02   7.427595E+02   7.363666E+02   7.685928E+02   7.711166E+02   7.435056E+02   7.553786E+02   7.500521E+02   7.702357E+02   7.684806E+02   7.034194E+02   7.196847E+02   6.878309E+02   7.010112E+02   6.883582E+02   7.076405E+02   7.232969E+02   7.005214E+02   7.340889E+02   7.205690E+02   6.895690E+02   6.890333E+02   6.674024E+02   6.521643E+02   6.601445E+02   6.870452E+02   6.602357E+02   6.689500E+02   7.207357E+02   8.326643E+02   8.638389E+02   8.545452E+02   8.538786E+02   8.561643E+02   8.698389E+02   9.154500E+02   8.626166E+02   7.314222E+02   6.847357E+02   6.806031E+02   7.028071E+02   6.856031E+02   7.051337E+02   7.243547E+02   7.440928E+02   7.620112E+02   8.027119E+02   7.843378E+02   7.038480E+02   6.757833E+02   6.973378E+02   6.839296E+02   6.896405E+02   6.628547E+02   6.731881E+02   7.123786E+02   7.260928E+02   7.287119E+02   7.170452E+02   7.148945E+02   7.426405E+02   7.580690E+02   7.685889E+02   7.672595E+02   7.517833E+02   7.416445E+02   7.370928E+02   7.258071E+02   7.273666E+02   7.388786E+02   7.337119E+02   7.290333E+02   7.320452E+02   7.389024E+02   7.512833E+02   7.546166E+02   7.366133E+02   7.319070E+02   7.452766E+02   7.467867E+02   7.332153E+02   7.315928E+02   7.284398E+02   7.334602E+02   7.433309E+02   7.302561E+02   7.140724E+02   7.074976E+02   6.932969E+02   6.899908E+02   6.880690E+02   6.948683E+02   6.816031E+02   6.759024E+02   6.743173E+02   6.639296E+02   6.425056E+02   6.427833E+02   6.525690E+02   6.544500E+02   6.239024E+02   6.164976E+02   6.263071E+02   6.160928E+02   6.067357E+02   6.065690E+02   5.958666E+02   5.811643E+02   5.712833E+02   5.645333E+02   5.639262E+02   5.626405E+02   5.600611E+02   5.576881E+02   5.573071E+02   5.567278E+02   5.571881E+02   5.605690E+02   5.608111E+02   5.581405E+02   5.549976E+02   5.548945E+02   5.569262E+02   5.648071E+02   5.685611E+02   5.590214E+02   5.589976E+02   5.628786E+02   5.670333E+02   5.814976E+02   5.979092E+02   6.271881E+02   6.285214E+02   6.048276E+02   5.777833E+02   5.820724E+02   5.726031E+02   5.588786E+02   5.623173E+02   5.680521E+02   5.667595E+02   5.510316E+02   5.450521E+02   5.564976E+02   5.572357E+02   5.498683E+02   5.430690E+02   5.531745E+02   5.686643E+02   5.487867E+02   5.396881E+02   5.329704E+02   5.250316E+02   5.203071E+02   5.201745E+02   5.219092E+02   5.244500E+02   5.290316E+02   5.310316E+02   5.313547E+02   5.439704E+02   5.382595E+02   5.249778E+02   5.195214E+02   5.159262E+02   5.160333E+02   5.155928E+02   5.135690E+02   5.183389E+02   5.242595E+02   5.248786E+02   5.195452E+02   5.187595E+02   5.100691E+02   5.058071E+02   5.046167E+02   5.031167E+02   5.009738E+02   5.011444E+02   4.984262E+02   4.993548E+02   4.993667E+02   5.052357E+02   5.117357E+02   5.156166E+02   5.247833E+02   5.269500E+02   5.176445E+02   5.102595E+02   5.065929E+02   5.025611E+02   5.007833E+02   4.983310E+02   5.024222E+02   5.059738E+02   5.135928E+02   5.099262E+02   5.141445E+02   5.201166E+02   5.253786E+02   5.273666E+02   5.305690E+02   5.316881E+02   5.286722E+02   5.308786E+02   5.259262E+02   5.251722E+02   5.277833E+02   5.228309E+02   5.185333E+02   5.128071E+02   5.127595E+02   5.173945E+02   5.218786E+02   5.243309E+02   5.245611E+02   5.269262E+02   5.304262E+02   5.350214E+02   5.356166E+02   5.353071E+02   5.357595E+02   5.435056E+02   5.420452E+02   5.447119E+02   5.493945E+02   5.454500E+02   5.483309E+02   5.519778E+02   5.539500E+02   5.606643E+02   5.612556E+02   5.575928E+02   5.546881E+02   5.567833E+02   5.631643E+02   5.734500E+02   5.817278E+02   5.823071E+02   5.896405E+02   5.934738E+02   6.149778E+02   6.056881E+02   5.897595E+02   5.867833E+02   5.870452E+02   5.894738E+02   6.000611E+02   6.197357E+02   6.183547E+02   6.091166E+02   6.116405E+02   6.080214E+02   6.069500E+02   6.036643E+02   6.079976E+02   5.964222E+02   5.892595E+02   5.822119E+02   5.792000E+02   5.790690E+02   5.774976E+02   5.763071E+02   5.803945E+02   5.970690E+02   5.948071E+02   5.866445E+02   5.683071E+02   5.624024E+02   5.579778E+02
   9.650690E+02   1.045831E+03   1.051355E+03   1.018589E+03   1.054283E+03   1.078902E+03   1.035478E+03   1.008807E+03   9.487595E+02   8.260333E+02   8.198276E+02   9.049296E+02   7.958071E+02   7.155623E+02   7.029500E+02   8.103309E+02   7.424602E+02   8.728276E+02   8.391643E+02   8.832969E+02   8.771881E+02   8.080611E+02   7.963071E+02   7.692119E+02   7.759500E+02   7.829500E+02   7.096643E+02   6.754262E+02   6.135214E+02   5.899262E+02   6.040690E+02   6.377556E+02   6.799500E+02   8.153071E+02   8.583666E+02   7.372969E+02   6.879908E+02   6.662833E+02   6.515826E+02   6.127663E+02   5.947833E+02   5.888071E+02   5.876031E+02   5.882357E+02   5.835214E+02   5.735214E+02   5.776722E+02   6.164024E+02   6.041405E+02   6.112833E+02   6.181166E+02   6.305452E+02   6.660214E+02   7.105452E+02   7.412119E+02   7.681881E+02   7.708945E+02   6.878786E+02   6.563071E+02   6.870889E+02   7.324738E+02   8.037595E+02   8.566643E+02   7.792766E+02   7.189296E+02   7.355690E+02   8.115010E+02   7.590112E+02   7.687119E+02   7.600316E+02   7.662561E+02   7.453309E+02   8.384398E+02   7.685928E+02   7.655611E+02   7.749024E+02   8.554262E+02   8.086881E+02   7.909976E+02   8.090214E+02   8.605214E+02   7.537556E+02   7.312357E+02   7.548309E+02   7.609778E+02   7.902833E+02   7.845928E+02   8.085889E+02   8.316166E+02   8.576881E+02   8.494222E+02   7.483990E+02   6.878480E+02   6.718786E+02   6.726235E+02   6.762357E+02   7.233786E+02   7.644194E+02   7.220928E+02   7.083309E+02   7.274602E+02   8.397867E+02   8.621949E+02   8.420928E+02   8.406031E+02   8.641405E+02   8.818389E+02   9.206643E+02   8.959500E+02   8.283389E+02   7.527357E+02   7.391643E+02   7.576722E+02   7.299024E+02   7.680928E+02   8.515056E+02   8.886881E+02   8.716643E+02   8.396166E+02   8.154976E+02   7.580214E+02   7.684500E+02   8.019262E+02   7.901405E+02   7.839222E+02   7.514976E+02   7.440928E+02   7.667255E+02   7.620452E+02   7.592561E+02   7.596235E+02   7.506643E+02   7.536031E+02   7.505826E+02   7.544500E+02   7.527051E+02   7.512969E+02   7.426643E+02   7.350316E+02   7.325214E+02   7.313309E+02   7.364806E+02   7.269704E+02   7.225611E+02   7.292833E+02   7.381166E+02   7.517000E+02   7.446881E+02   7.279943E+02   7.355419E+02   7.494024E+02   7.498786E+02   7.324024E+02   7.237278E+02   7.222833E+02   7.303786E+02   7.388389E+02   7.183309E+02   7.073309E+02   6.943945E+02   6.873547E+02   6.804976E+02   6.698111E+02   6.884262E+02   6.776881E+02   6.579500E+02   6.668309E+02   6.593786E+02   6.369976E+02   6.386031E+02   6.541337E+02   6.476405E+02   6.262969E+02   6.195010E+02   6.155826E+02   6.120452E+02   5.979704E+02   5.968683E+02   5.992357E+02   5.841337E+02   5.689500E+02   5.674024E+02   5.709908E+02   5.671133E+02   5.644738E+02   5.599908E+02   5.613786E+02   5.586643E+02   5.597051E+02   5.647051E+02   5.641881E+02   5.604398E+02   5.578786E+02   5.617000E+02   5.632833E+02   5.623547E+02   5.684500E+02   5.628547E+02   5.628071E+02   5.697357E+02   5.742556E+02   5.771405E+02   5.914500E+02   6.211722E+02   6.092595E+02   5.971166E+02   6.013945E+02   5.999738E+02   5.743309E+02   5.657833E+02   5.786405E+02   6.057119E+02   5.908945E+02   5.550452E+02   5.523071E+02   5.796445E+02   5.687595E+02   5.489976E+02   5.476166E+02   5.580690E+02   5.729262E+02   5.501881E+02   5.380056E+02   5.340214E+02   5.271166E+02   5.220611E+02   5.253309E+02   5.243071E+02   5.269500E+02   5.330214E+02   5.381405E+02   5.394500E+02   5.733547E+02   5.919024E+02   5.415214E+02   5.258276E+02   5.208276E+02   5.203786E+02   5.162766E+02   5.170928E+02   5.203071E+02   5.266439E+02   5.228683E+02   5.155826E+02   5.110452E+02   5.071541E+02   5.055418E+02   5.039024E+02   5.030316E+02   5.021541E+02   5.009738E+02   5.003786E+02   4.980316E+02   5.012833E+02   5.032153E+02   5.074398E+02   5.203547E+02   5.269908E+02   5.258683E+02   5.146643E+02   5.071949E+02   5.043174E+02   5.022357E+02   5.005418E+02   4.980316E+02   5.020520E+02   5.087255E+02   5.062969E+02   5.128480E+02   5.209976E+02   5.195623E+02   5.202969E+02   5.256166E+02   5.281949E+02   5.259908E+02   5.240214E+02   5.267051E+02   5.220928E+02   5.185928E+02   5.229908E+02   5.205418E+02   5.158309E+02   5.113378E+02   5.163990E+02   5.199976E+02   5.257051E+02   5.268683E+02   5.284024E+02   5.296643E+02   5.313582E+02   5.335418E+02   5.296643E+02   5.300452E+02   5.355928E+02   5.390333E+02   5.377595E+02   5.425452E+02   5.463389E+02   5.420214E+02   5.441643E+02   5.440611E+02   5.496643E+02   5.561405E+02   5.558666E+02   5.531405E+02   5.545690E+02   5.598389E+02   5.626643E+02   5.671643E+02   5.730611E+02   5.757119E+02   5.824738E+02   5.904738E+02   6.106722E+02   6.073309E+02   5.895214E+02   5.823666E+02   5.815690E+02   5.842119E+02   5.965056E+02   6.153173E+02   6.215826E+02   6.320690E+02   6.265826E+02   6.162357E+02   6.130214E+02   6.005418E+02   5.998480E+02   5.943786E+02   5.914602E+02   5.885214E+02   5.861643E+02   5.872766E+02   5.886439E+02   5.879296E+02   5.901643E+02   6.010316E+02   6.126439E+02   6.026643E+02   5.805826E+02   5.642969E+02   5.584262E+02
   1.024212E+03   1.039848E+03   9.661949E+02   9.413309E+02   1.031950E+03   9.996643E+02   9.626722E+02   9.151643E+02   8.927357E+02   7.509500E+02   7.461405E+02   8.896405E+02   7.956722E+02   6.773547E+02   6.659976E+02   7.101166E+02   6.806881E+02   7.774262E+02   7.137000E+02   7.532595E+02   9.063786E+02   9.363786E+02   9.424194E+02   9.104194E+02   9.213582E+02   8.983786E+02   7.706439E+02   6.728683E+02   6.289738E+02   5.932969E+02   5.934024E+02   6.157278E+02   6.585214E+02   7.503071E+02   7.953111E+02   7.430452E+02   6.591166E+02   6.310611E+02   6.111166E+02   5.929500E+02   5.797556E+02   5.776166E+02   5.759262E+02   5.733945E+02   5.729500E+02   5.742969E+02   5.818309E+02   6.017459E+02   6.134806E+02   6.119908E+02   6.212153E+02   6.365214E+02   6.761133E+02   7.018547E+02   7.574194E+02   7.937867E+02   7.740611E+02   6.917357E+02   6.749262E+02   6.796166E+02   6.980690E+02   7.457357E+02   8.524500E+02   7.698786E+02   7.528786E+02   7.450056E+02   8.467595E+02   8.308309E+02   8.188666E+02   8.618309E+02   8.093786E+02   8.183666E+02   8.883786E+02   8.389500E+02   8.181337E+02   8.377867E+02   9.048480E+02   9.452153E+02   9.320214E+02   9.377255E+02   9.018071E+02   8.497595E+02   7.772153E+02   8.528683E+02   9.136881E+02   9.100452E+02   9.112595E+02   9.164778E+02   9.249738E+02   9.080452E+02   9.162278E+02   8.245690E+02   7.426405E+02   7.001445E+02   7.313786E+02   7.609738E+02   8.561722E+02   9.113547E+02   8.919262E+02   8.877357E+02   8.816405E+02   8.514738E+02   8.337119E+02   8.315056E+02   8.374943E+02   8.813752E+02   8.676371E+02   8.555010E+02   8.571745E+02   8.756881E+02   8.911337E+02   8.683173E+02   8.760214E+02   8.651949E+02   9.006643E+02   9.085452E+02   8.518888E+02   8.336031E+02   8.178547E+02   8.244262E+02   8.311881E+02   8.467833E+02   8.556166E+02   8.448547E+02   8.475928E+02   8.177595E+02   7.760452E+02   7.643309E+02   7.606166E+02   7.512119E+02   7.503547E+02   7.457000E+02   7.484262E+02   7.404024E+02   7.426722E+02   7.407800E+02   7.404229E+02   7.445611E+02   7.364976E+02   7.287324E+02   7.223514E+02   7.239705E+02   7.195181E+02   7.211570E+02   7.297596E+02   7.413718E+02   7.473276E+02   7.352289E+02   7.218004E+02   7.300249E+02   7.344467E+02   7.382289E+02   7.314127E+02   7.178752E+02   7.175963E+02   7.261882E+02   7.327562E+02   7.216847E+02   7.057459E+02   7.030928E+02   7.016235E+02   6.855690E+02   6.636445E+02   6.702833E+02   6.688547E+02   6.546166E+02   6.627833E+02   6.630214E+02   6.393389E+02   6.289976E+02   6.326405E+02   6.384500E+02   6.250928E+02   6.129500E+02   6.130690E+02   6.020611E+02   5.915928E+02   5.821166E+02   5.823945E+02   5.724976E+02   5.697595E+02   5.734500E+02   5.776881E+02   5.692595E+02   5.640056E+02   5.630452E+02   5.654024E+02   5.612556E+02   5.628071E+02   5.686881E+02   5.668945E+02   5.617595E+02   5.608547E+02   5.646405E+02   5.671541E+02   5.662561E+02   5.693990E+02   5.672357E+02   5.673378E+02   5.712357E+02   5.775690E+02   5.789092E+02   5.876643E+02   6.264976E+02   6.435214E+02   6.421133E+02   6.350928E+02   5.976643E+02   5.994806E+02   5.885928E+02   5.749500E+02   5.993582E+02   5.872119E+02   5.609704E+02   5.621541E+02   5.943071E+02   5.677459E+02   5.538683E+02   5.596643E+02   5.605452E+02   5.781643E+02   5.574500E+02   5.454222E+02   5.377119E+02   5.268786E+02   5.258945E+02   5.289976E+02   5.284024E+02   5.292556E+02   5.378071E+02   5.648547E+02   5.539500E+02   5.684500E+02   6.019024E+02   5.854500E+02   5.433786E+02   5.261643E+02   5.218389E+02   5.179738E+02   5.218071E+02   5.242000E+02   5.267357E+02   5.235214E+02   5.180690E+02   5.110333E+02   5.075929E+02   5.061643E+02   5.088667E+02   5.144976E+02   5.078310E+02   5.038111E+02   5.014262E+02   5.010691E+02   4.986722E+02   5.017833E+02   5.061881E+02   5.195889E+02   5.212833E+02   5.225452E+02   5.112556E+02   5.054976E+02   5.028548E+02   5.016722E+02   5.002357E+02   4.974500E+02   5.014738E+02   5.058389E+02   5.016643E+02   5.110929E+02   5.142556E+02   5.122119E+02   5.214738E+02   5.225611E+02   5.252119E+02   5.216881E+02   5.230611E+02   5.244262E+02   5.196405E+02   5.136722E+02   5.154976E+02   5.156405E+02   5.120056E+02   5.116405E+02   5.185690E+02   5.227833E+02   5.265214E+02   5.296643E+02   5.309778E+02   5.302833E+02   5.278547E+02   5.278071E+02   5.268389E+02   5.315214E+02   5.348071E+02   5.334024E+02   5.341133E+02   5.400928E+02   5.416166E+02   5.383173E+02   5.392969E+02   5.403309E+02   5.446847E+02   5.497255E+02   5.483547E+02   5.501541E+02   5.538683E+02   5.568547E+02   5.622561E+02   5.698480E+02   5.759976E+02   5.798888E+02   5.855418E+02   5.892561E+02   5.945690E+02   5.891337E+02   5.885418E+02   5.784738E+02   5.780112E+02   5.855010E+02   5.967833E+02   5.951133E+02   6.033786E+02   6.284222E+02   6.239024E+02   6.040690E+02   5.960056E+02   5.865214E+02   5.830690E+02   5.838666E+02   5.794500E+02   5.829500E+02   5.784778E+02   5.775928E+02   5.783309E+02   5.851405E+02   5.977833E+02   5.978071E+02   6.057833E+02   6.063389E+02   5.796166E+02   5.647833E+02   5.603666E+02
   9.351445E+02   9.590214E+02   8.858071E+02   8.521445E+02   9.739976E+02   9.374976E+02   8.762556E+02   8.421133E+02   8.174398E+02   7.109262E+02   7.229908E+02   8.217663E+02   7.275214E+02   6.849296E+02   6.462969E+02   6.647833E+02   6.584262E+02   7.138547E+02   6.793309E+02   7.013071E+02   7.973786E+02   8.437595E+02   8.478786E+02   8.341881E+02   8.612119E+02   9.027278E+02   7.830452E+02   6.853547E+02   6.432278E+02   5.969024E+02   5.843071E+02   6.087357E+02   6.308480E+02   6.484602E+02   6.683309E+02   6.937459E+02   6.268071E+02   5.994500E+02   5.939500E+02   5.875010E+02   5.750056E+02   5.762357E+02   5.765214E+02   5.780611E+02   5.791881E+02   5.855690E+02   5.938786E+02   6.023309E+02   6.310452E+02   6.339738E+02   6.245889E+02   6.412357E+02   6.700452E+02   7.049500E+02   7.649024E+02   8.578786E+02   7.761166E+02   7.346031E+02   6.917459E+02   6.967595E+02   7.294194E+02   7.861541E+02   8.922833E+02   7.870521E+02   7.779296E+02   7.709262E+02   8.419092E+02   9.086031E+02   8.956166E+02   9.178309E+02   8.036881E+02   8.853786E+02   9.498309E+02   8.681881E+02   8.181881E+02   8.975889E+02   9.772833E+02   9.965214E+02   9.663666E+02   9.636405E+02   9.671166E+02   9.478666E+02   9.234262E+02   9.461405E+02   9.392833E+02   9.151881E+02   8.934806E+02   8.941643E+02   9.018888E+02   8.817459E+02   8.804738E+02   8.955214E+02   8.765623E+02   8.287119E+02   8.587051E+02   9.008480E+02   9.126235E+02   9.123378E+02   9.059908E+02   8.725928E+02   8.568666E+02   8.435928E+02   8.269943E+02   8.227403E+02   8.303038E+02   8.351133E+02   8.325458E+02   8.376371E+02   8.532800E+02   8.913111E+02   8.815214E+02   8.468547E+02   8.405611E+02   8.549262E+02   9.017119E+02   8.764500E+02   8.601609E+02   8.313276E+02   8.147403E+02   8.048990E+02   8.042698E+02   8.059841E+02   8.118208E+02   8.060861E+02   8.043310E+02   7.909705E+02   7.658820E+02   7.558888E+02   7.534500E+02   7.475010E+02   7.408071E+02   7.410690E+02   7.454398E+02   7.350928E+02   7.328071E+02   7.322902E+02   7.355657E+02   7.355056E+02   7.349738E+02   7.337324E+02   7.248237E+02   7.165895E+02   7.161609E+02   7.293514E+02   7.392562E+02   7.513038E+02   7.482562E+02   7.350181E+02   7.193038E+02   7.173514E+02   7.208237E+02   7.313752E+02   7.338990E+02   7.159348E+02   7.155657E+02   7.236609E+02   7.295458E+02   7.328071E+02   7.290214E+02   7.136722E+02   6.945928E+02   6.761643E+02   6.598786E+02   6.510316E+02   6.522766E+02   6.479738E+02   6.566643E+02   6.574194E+02   6.409976E+02   6.246031E+02   6.270521E+02   6.356031E+02   6.226405E+02   6.085623E+02   6.042357E+02   5.941881E+02   5.881337E+02   5.815418E+02   5.760690E+02   5.771541E+02   5.725623E+02   5.764024E+02   5.760316E+02   5.683309E+02   5.655333E+02   5.670690E+02   5.686643E+02   5.634778E+02   5.667119E+02   5.724024E+02   5.675056E+02   5.629262E+02   5.646166E+02   5.682000E+02   5.725452E+02   5.717357E+02   5.754024E+02   5.730333E+02   5.745214E+02   5.788309E+02   5.819222E+02   5.905928E+02   5.941405E+02   6.064500E+02   6.382119E+02   6.498071E+02   6.448111E+02   6.249262E+02   6.164262E+02   5.901722E+02   5.937833E+02   6.091405E+02   5.900889E+02   5.774738E+02   5.831643E+02   6.005056E+02   5.790690E+02   5.690928E+02   5.847119E+02   5.820056E+02   5.639500E+02   5.478276E+02   5.433071E+02   5.344194E+02   5.290521E+02   5.331643E+02   5.383582E+02   5.405623E+02   5.371881E+02   5.377459E+02   5.764806E+02   5.929976E+02   6.040316E+02   5.923582E+02   5.619738E+02   5.471133E+02   5.282153E+02   5.237595E+02   5.212561E+02   5.256643E+02   5.269738E+02   5.224194E+02   5.172766E+02   5.138071E+02   5.110214E+02   5.097051E+02   5.110520E+02   5.116643E+02   5.177663E+02   5.083786E+02   5.035214E+02   5.008275E+02   5.020520E+02   5.020929E+02   4.987459E+02   5.018888E+02   5.115452E+02   5.115623E+02   5.133990E+02   5.055214E+02   5.026643E+02   5.008786E+02   5.002000E+02   4.983310E+02   4.964976E+02   5.002833E+02   5.023111E+02   5.000929E+02   5.022357E+02   5.021722E+02   5.093310E+02   5.148071E+02   5.189778E+02   5.194738E+02   5.180214E+02   5.237000E+02   5.246405E+02   5.206881E+02   5.181166E+02   5.114738E+02   5.112119E+02   5.088944E+02   5.145452E+02   5.183786E+02   5.214500E+02   5.250690E+02   5.281643E+02   5.275889E+02   5.267357E+02   5.243547E+02   5.249976E+02   5.250611E+02   5.291166E+02   5.281166E+02   5.288111E+02   5.312595E+02   5.362833E+02   5.348945E+02   5.349024E+02   5.373786E+02   5.384222E+02   5.409500E+02   5.439738E+02   5.478111E+02   5.515214E+02   5.551881E+02   5.591722E+02   5.683309E+02   5.764024E+02   5.792000E+02   5.822357E+02   5.831405E+02   5.851405E+02   5.849500E+02   5.787595E+02   5.785928E+02   5.750611E+02   5.745690E+02   5.811881E+02   5.958389E+02   5.861405E+02   5.883786E+02   6.084500E+02   6.104262E+02   6.003071E+02   5.898111E+02   5.841881E+02   5.800214E+02   5.758666E+02   5.740214E+02   5.763309E+02   5.724222E+02   5.717357E+02   5.705690E+02   5.765056E+02   5.813666E+02   5.826166E+02   6.004024E+02   6.094222E+02   5.951643E+02   5.743786E+02   5.742556E+02