# Name file for MODFLOW-NWT, generated by Flopy version 3.2.6.
#xul:0; yul:636000; rotation:0; proj4_str:+init=EPSG:4326; units:meters; lenuni:2; length_multiplier:1.0 ;start_datetime:1-1-1970
LIST               2  P:/watmodel/CWATM/cwatm_input_1km/bhima/Modflow/output/Rh500_steady.list
DIS               11  P:/watmodel/CWATM/cwatm_input_1km/bhima/Modflow/output/Rh500_steady.dis 
BAS6              13  P:/watmodel/CWATM/cwatm_input_1km/bhima/Modflow/output/Rh500_steady.bas 
UPW               31  P:/watmodel/CWATM/cwatm_input_1km/bhima/Modflow/output/Rh500_steady.upw 
NWT               32  P:/watmodel/CWATM/cwatm_input_1km/bhima/Modflow/output/Rh500_steady.nwt 
DRN               21  P:/watmodel/CWATM/cwatm_input_1km/bhima/Modflow/output/Rh500_steady.drn 
RCH               19  P:/watmodel/CWATM/cwatm_input_1km/bhima/Modflow/output/Rh500_steady.rch 
OC                14  P:/watmodel/CWATM/cwatm_input_1km/bhima/Modflow/output/Rh500_steady.oc 
DATA(BINARY)      51  P:/watmodel/CWATM/cwatm_input_1km/bhima/Modflow/output/Rh500_steady.hds REPLACE
