# DIS package for  MODFLOW-NWT, generated by Flopy.
         1       566       586         1         4         2
  0
CONSTANT    5.000000E+02                           #delr                          
CONSTANT    5.000000E+02                           #delc                          
