# Name file for MODFLOW-NWT, generated by Flopy version 3.2.6.
#xul:0; yul:636000; rotation:0; proj4_str:+init=EPSG:4326; units:meters; lenuni:2; length_multiplier:1.0 ;start_datetime:1-1-1970
LIST               2  P:/watmodel/CWATM/cwatm_input_1km/bhima/Modflow/output/Rh500_transient.list
DIS               11  P:/watmodel/CWATM/cwatm_input_1km/bhima/Modflow/output/Rh500_transient.dis 
BAS6              13  P:/watmodel/CWATM/cwatm_input_1km/bhima/Modflow/output/Rh500_transient.bas 
UPW               31  P:/watmodel/CWATM/cwatm_input_1km/bhima/Modflow/output/Rh500_transient.upw 
NWT               32  P:/watmodel/CWATM/cwatm_input_1km/bhima/Modflow/output/Rh500_transient.nwt 
DRN               21  P:/watmodel/CWATM/cwatm_input_1km/bhima/Modflow/output/Rh500_transient.drn 
RCH               19  P:/watmodel/CWATM/cwatm_input_1km/bhima/Modflow/output/Rh500_transient.rch 
OC                14  P:/watmodel/CWATM/cwatm_input_1km/bhima/Modflow/output/Rh500_transient.oc 
DATA(BINARY)      51  P:/watmodel/CWATM/cwatm_input_1km/bhima/Modflow/output/Rh500_transient.hds REPLACE
